<?xml version="1.0" encoding="UTF-8"?>

<!-- generated on 2024-03-04 09:49:30 by Eclipse SUMO netedit Version 1.19.0
<configuration xmlns:xsi="http://www.w3.org/2001/XMLSchema-instance" xsi:noNamespaceSchemaLocation="http://sumo.dlr.de/xsd/neteditConfiguration.xsd">

    <input>
        <sumocfg-file value="/home/sztaki/Documents/reinforcement_learning/envs/sumo/intersection/1_intersection.sumocfg"/>
        <additional-files value=""/>
        <route-files value="/home/sztaki/Documents/reinforcement_learning/envs/sumo/intersection/1_intersection.rou.xml"/>
        <sumo-net-file value="/home/sztaki/Documents/reinforcement_learning/envs/sumo/intersection/1_intersection.net.xml"/>
    </input>

    <output>
        <output-file value="/home/sztaki/Documents/reinforcement_learning/envs/sumo/intersection/1_intersection.net.xml"/>
    </output>

    <processing>
        <geometry.min-radius.fix.railways value="false"/>
        <geometry.max-grade.fix value="false"/>
        <offset.disable-normalization value="true"/>
        <lefthand value="0"/>
    </processing>

    <junctions>
        <no-turnarounds value="true"/>
        <junctions.corner-detail value="5"/>
        <junctions.limit-turn-speed value="5.50"/>
        <rectangular-lane-cut value="0"/>
    </junctions>

    <pedestrian>
        <walkingareas value="0"/>
    </pedestrian>

</configuration>
-->

<net version="1.16" junctionCornerDetail="5" limitTurnSpeed="5.50" xmlns:xsi="http://www.w3.org/2001/XMLSchema-instance" xsi:noNamespaceSchemaLocation="http://sumo.dlr.de/xsd/net_file.xsd">

    <location netOffset="0.00,0.00" convBoundary="-200.00,0.00,0.00,200.00" origBoundary="-10000000000.00,-10000000000.00,10000000000.00,10000000000.00" projParameter="!"/>

    <edge id=":J5_0" function="internal">
        <lane id=":J5_0_0" index="0" speed="6.51" length="9.03" shape="-101.60,107.20 -101.95,104.75 -103.00,103.00 -104.75,101.95 -107.20,101.60"/>
    </edge>
    <edge id=":J5_1" function="internal">
        <lane id=":J5_1_0" index="0" speed="13.89" length="14.40" shape="-101.60,107.20 -101.60,92.80"/>
    </edge>
    <edge id=":J5_2" function="internal">
        <lane id=":J5_2_0" index="0" speed="8.00" length="4.07" shape="-101.60,107.20 -101.05,103.35 -100.96,103.20"/>
    </edge>
    <edge id=":J5_12" function="internal">
        <lane id=":J5_12_0" index="0" speed="8.00" length="10.13" shape="-100.96,103.20 -99.40,100.60 -96.65,98.95 -92.80,98.40"/>
    </edge>
    <edge id=":J5_3" function="internal">
        <lane id=":J5_3_0" index="0" speed="6.51" length="9.03" shape="-92.80,101.60 -95.25,101.95 -97.00,103.00 -98.05,104.75 -98.40,107.20"/>
    </edge>
    <edge id=":J5_4" function="internal">
        <lane id=":J5_4_0" index="0" speed="13.89" length="14.40" shape="-92.80,101.60 -107.20,101.60"/>
    </edge>
    <edge id=":J5_5" function="internal">
        <lane id=":J5_5_0" index="0" speed="8.00" length="4.07" shape="-92.80,101.60 -96.65,101.05 -96.80,100.96"/>
    </edge>
    <edge id=":J5_13" function="internal">
        <lane id=":J5_13_0" index="0" speed="8.00" length="10.13" shape="-96.80,100.96 -99.40,99.40 -101.05,96.65 -101.60,92.80"/>
    </edge>
    <edge id=":J5_6" function="internal">
        <lane id=":J5_6_0" index="0" speed="6.51" length="9.03" shape="-98.40,92.80 -98.05,95.25 -97.00,97.00 -95.25,98.05 -92.80,98.40"/>
    </edge>
    <edge id=":J5_7" function="internal">
        <lane id=":J5_7_0" index="0" speed="13.89" length="14.40" shape="-98.40,92.80 -98.40,107.20"/>
    </edge>
    <edge id=":J5_8" function="internal">
        <lane id=":J5_8_0" index="0" speed="8.00" length="4.07" shape="-98.40,92.80 -98.95,96.65 -99.04,96.80"/>
    </edge>
    <edge id=":J5_14" function="internal">
        <lane id=":J5_14_0" index="0" speed="8.00" length="10.13" shape="-99.04,96.80 -100.60,99.40 -103.35,101.05 -107.20,101.60"/>
    </edge>
    <edge id=":J5_9" function="internal">
        <lane id=":J5_9_0" index="0" speed="6.51" length="9.03" shape="-107.20,98.40 -104.75,98.05 -103.00,97.00 -101.95,95.25 -101.60,92.80"/>
    </edge>
    <edge id=":J5_10" function="internal">
        <lane id=":J5_10_0" index="0" speed="13.89" length="14.40" shape="-107.20,98.40 -92.80,98.40"/>
    </edge>
    <edge id=":J5_11" function="internal">
        <lane id=":J5_11_0" index="0" speed="8.00" length="4.07" shape="-107.20,98.40 -103.35,98.95 -103.20,99.04"/>
    </edge>
    <edge id=":J5_15" function="internal">
        <lane id=":J5_15_0" index="0" speed="8.00" length="10.13" shape="-103.20,99.04 -100.60,100.60 -98.95,103.35 -98.40,107.20"/>
    </edge>

    <edge id="-E3" from="J5" to="J4" priority="-1" length="200.00">
        <lane id="-E3_0" index="0" speed="13.89" length="200.00" shape="-107.20,101.60 -200.00,101.60"/>
    </edge>
    <edge id="-E4" from="J5" to="J6" priority="-1" length="200.00">
        <lane id="-E4_0" index="0" speed="13.89" length="200.00" shape="-101.60,92.80 -101.60,0.00"/>
    </edge>
    <edge id="-E5" from="J7" to="J5" priority="-1" length="200.00">
        <lane id="-E5_0" index="0" speed="13.89" length="200.00" shape="0.00,101.60 -92.80,101.60"/>
    </edge>
    <edge id="-E6" from="J5" to="J8" priority="-1" length="200.00">
        <lane id="-E6_0" index="0" speed="13.89" length="200.00" shape="-98.40,107.20 -98.40,200.00"/>
    </edge>
    <edge id="E3" from="J4" to="J5" priority="-1" length="200.00">
        <lane id="E3_0" index="0" speed="13.89" length="200.00" shape="-200.00,98.40 -107.20,98.40"/>
    </edge>
    <edge id="E4" from="J6" to="J5" priority="-1" length="200.00">
        <lane id="E4_0" index="0" speed="13.89" length="200.00" shape="-98.40,0.00 -98.40,92.80"/>
    </edge>
    <edge id="E5" from="J5" to="J7" priority="-1" length="200.00">
        <lane id="E5_0" index="0" speed="13.89" length="200.00" shape="-92.80,98.40 0.00,98.40"/>
    </edge>
    <edge id="E6" from="J8" to="J5" priority="-1" length="200.00">
        <lane id="E6_0" index="0" speed="13.89" length="200.00" shape="-101.60,200.00 -101.60,107.20"/>
    </edge>

    <tlLogic id="J5" type="static" programID="0" offset="0">
        <phase duration="42" state="GGgrrrGGgrrr"/>
        <phase duration="3"  state="yyyrrryyyrrr"/>
        <phase duration="42" state="rrrGGgrrrGGg"/>
        <phase duration="3"  state="rrryyyrrryyy"/>
    </tlLogic>

    <junction id="J4" type="dead_end" x="-200.00" y="100.00" incLanes="-E3_0" intLanes="" shape="-200.00,100.00 -200.00,103.20 -200.00,100.00"/>
    <junction id="J5" type="traffic_light" x="-100.00" y="100.00" incLanes="E6_0 -E5_0 E4_0 E3_0" intLanes=":J5_0_0 :J5_1_0 :J5_12_0 :J5_3_0 :J5_4_0 :J5_13_0 :J5_6_0 :J5_7_0 :J5_14_0 :J5_9_0 :J5_10_0 :J5_15_0" shape="-103.20,107.20 -96.80,107.20 -96.36,104.98 -95.80,104.20 -95.02,103.64 -94.02,103.31 -92.80,103.20 -92.80,96.80 -95.02,96.36 -95.80,95.80 -96.36,95.02 -96.69,94.02 -96.80,92.80 -103.20,92.80 -103.64,95.02 -104.20,95.80 -104.98,96.36 -105.98,96.69 -107.20,96.80 -107.20,103.20 -104.98,103.64 -104.20,104.20 -103.64,104.98 -103.31,105.98">
        <request index="0"  response="000000000000" foes="000100010000" cont="0"/>
        <request index="1"  response="100000100000" foes="111100110000" cont="0"/>
        <request index="2"  response="100011100000" foes="110111110000" cont="1"/>
        <request index="3"  response="000010000000" foes="100010000000" cont="0"/>
        <request index="4"  response="000110000111" foes="100110000111" cont="0"/>
        <request index="5"  response="111110000110" foes="111110000110" cont="1"/>
        <request index="6"  response="000000000000" foes="010000000100" cont="0"/>
        <request index="7"  response="100000100000" foes="110000111100" cont="0"/>
        <request index="8"  response="100000100111" foes="110000110111" cont="1"/>
        <request index="9"  response="000000000010" foes="000000100010" cont="0"/>
        <request index="10" response="000111000110" foes="000111100110" cont="0"/>
        <request index="11" response="000110011110" foes="000110111110" cont="1"/>
    </junction>
    <junction id="J6" type="dead_end" x="-100.00" y="0.00" incLanes="-E4_0" intLanes="" shape="-100.00,0.00 -103.20,0.00 -100.00,0.00"/>
    <junction id="J7" type="dead_end" x="0.00" y="100.00" incLanes="E5_0" intLanes="" shape="0.00,100.00 0.00,96.80 0.00,100.00"/>
    <junction id="J8" type="dead_end" x="-100.00" y="200.00" incLanes="-E6_0" intLanes="" shape="-100.00,200.00 -96.80,200.00 -100.00,200.00"/>

    <junction id=":J5_12_0" type="internal" x="-100.96" y="103.20" incLanes=":J5_2_0 E4_0" intLanes=":J5_4_0 :J5_5_0 :J5_6_0 :J5_7_0 :J5_10_0 :J5_11_0"/>
    <junction id=":J5_13_0" type="internal" x="-96.80" y="100.96" incLanes=":J5_5_0 E3_0" intLanes=":J5_1_0 :J5_2_0 :J5_7_0 :J5_8_0 :J5_9_0 :J5_10_0"/>
    <junction id=":J5_14_0" type="internal" x="-99.04" y="96.80" incLanes=":J5_8_0 E6_0" intLanes=":J5_0_0 :J5_1_0 :J5_4_0 :J5_5_0 :J5_10_0 :J5_11_0"/>
    <junction id=":J5_15_0" type="internal" x="-103.20" y="99.04" incLanes=":J5_11_0 -E5_0" intLanes=":J5_1_0 :J5_2_0 :J5_3_0 :J5_4_0 :J5_7_0 :J5_8_0"/>

    <connection from="-E5" to="-E6" fromLane="0" toLane="0" via=":J5_3_0" tl="J5" linkIndex="3" dir="r" state="o"/>
    <connection from="-E5" to="-E3" fromLane="0" toLane="0" via=":J5_4_0" tl="J5" linkIndex="4" dir="s" state="o"/>
    <connection from="-E5" to="-E4" fromLane="0" toLane="0" via=":J5_5_0" tl="J5" linkIndex="5" dir="l" state="o"/>
    <connection from="E3" to="-E4" fromLane="0" toLane="0" via=":J5_9_0" tl="J5" linkIndex="9" dir="r" state="o"/>
    <connection from="E3" to="E5" fromLane="0" toLane="0" via=":J5_10_0" tl="J5" linkIndex="10" dir="s" state="o"/>
    <connection from="E3" to="-E6" fromLane="0" toLane="0" via=":J5_11_0" tl="J5" linkIndex="11" dir="l" state="o"/>
    <connection from="E4" to="E5" fromLane="0" toLane="0" via=":J5_6_0" tl="J5" linkIndex="6" dir="r" state="O"/>
    <connection from="E4" to="-E6" fromLane="0" toLane="0" via=":J5_7_0" tl="J5" linkIndex="7" dir="s" state="O"/>
    <connection from="E4" to="-E3" fromLane="0" toLane="0" via=":J5_8_0" tl="J5" linkIndex="8" dir="l" state="o"/>
    <connection from="E6" to="-E3" fromLane="0" toLane="0" via=":J5_0_0" tl="J5" linkIndex="0" dir="r" state="O"/>
    <connection from="E6" to="-E4" fromLane="0" toLane="0" via=":J5_1_0" tl="J5" linkIndex="1" dir="s" state="O"/>
    <connection from="E6" to="E5" fromLane="0" toLane="0" via=":J5_2_0" tl="J5" linkIndex="2" dir="l" state="o"/>

    <connection from=":J5_0" to="-E3" fromLane="0" toLane="0" dir="r" state="M"/>
    <connection from=":J5_1" to="-E4" fromLane="0" toLane="0" dir="s" state="M"/>
    <connection from=":J5_2" to="E5" fromLane="0" toLane="0" via=":J5_12_0" dir="l" state="m"/>
    <connection from=":J5_12" to="E5" fromLane="0" toLane="0" dir="l" state="M"/>
    <connection from=":J5_3" to="-E6" fromLane="0" toLane="0" dir="r" state="M"/>
    <connection from=":J5_4" to="-E3" fromLane="0" toLane="0" dir="s" state="M"/>
    <connection from=":J5_5" to="-E4" fromLane="0" toLane="0" via=":J5_13_0" dir="l" state="m"/>
    <connection from=":J5_13" to="-E4" fromLane="0" toLane="0" dir="l" state="M"/>
    <connection from=":J5_6" to="E5" fromLane="0" toLane="0" dir="r" state="M"/>
    <connection from=":J5_7" to="-E6" fromLane="0" toLane="0" dir="s" state="M"/>
    <connection from=":J5_8" to="-E3" fromLane="0" toLane="0" via=":J5_14_0" dir="l" state="m"/>
    <connection from=":J5_14" to="-E3" fromLane="0" toLane="0" dir="l" state="M"/>
    <connection from=":J5_9" to="-E4" fromLane="0" toLane="0" dir="r" state="M"/>
    <connection from=":J5_10" to="E5" fromLane="0" toLane="0" dir="s" state="M"/>
    <connection from=":J5_11" to="-E6" fromLane="0" toLane="0" via=":J5_15_0" dir="l" state="m"/>
    <connection from=":J5_15" to="-E6" fromLane="0" toLane="0" dir="l" state="M"/>

</net>
