<?xml version="1.0" encoding="UTF-8"?>

<!-- generated on 2024-03-06 09:03:05 by Eclipse SUMO netedit Version 1.19.0
<configuration xmlns:xsi="http://www.w3.org/2001/XMLSchema-instance" xsi:noNamespaceSchemaLocation="http://sumo.dlr.de/xsd/neteditConfiguration.xsd">

    <input>
        <sumocfg-file value="/home/sztaki/Documents/reinforcement_learning/envs/sumo/intersection/1_intersection.sumocfg"/>
        <additional-files value=""/>
        <route-files value="/home/sztaki/Documents/reinforcement_learning/envs/sumo/intersection/1_intersection.rou.xml"/>
        <sumo-net-file value="/home/sztaki/Documents/reinforcement_learning/envs/sumo/intersection/1_intersection.net.xml"/>
    </input>

    <output>
        <output-file value="/home/sztaki/Documents/reinforcement_learning/envs/sumo/intersection/1_intersection.net.xml"/>
    </output>

    <processing>
        <geometry.min-radius.fix.railways value="false"/>
        <geometry.max-grade.fix value="false"/>
        <offset.disable-normalization value="true"/>
        <lefthand value="0"/>
    </processing>

    <junctions>
        <no-turnarounds value="true"/>
        <junctions.corner-detail value="5"/>
        <junctions.limit-turn-speed value="5.50"/>
        <rectangular-lane-cut value="0"/>
    </junctions>

    <pedestrian>
        <walkingareas value="0"/>
    </pedestrian>

</configuration>
-->

<net version="1.16" junctionCornerDetail="5" limitTurnSpeed="5.50" xmlns:xsi="http://www.w3.org/2001/XMLSchema-instance" xsi:noNamespaceSchemaLocation="http://sumo.dlr.de/xsd/net_file.xsd">

    <location netOffset="0.00,0.00" convBoundary="-400.00,-200.00,0.00,200.00" origBoundary="-10000000000.00,-10000000000.00,10000000000.00,10000000000.00" projParameter="!"/>

    <edge id=":J1_0" function="internal">
        <lane id=":J1_0_0" index="0" speed="6.51" length="9.03" shape="-201.60,7.20 -201.95,4.75 -203.00,3.00 -204.75,1.95 -207.20,1.60"/>
    </edge>
    <edge id=":J1_1" function="internal">
        <lane id=":J1_1_0" index="0" speed="13.89" length="14.40" shape="-201.60,7.20 -201.60,-7.20"/>
    </edge>
    <edge id=":J1_2" function="internal">
        <lane id=":J1_2_0" index="0" speed="8.00" length="4.07" shape="-201.60,7.20 -201.05,3.35 -200.96,3.20"/>
    </edge>
    <edge id=":J1_12" function="internal">
        <lane id=":J1_12_0" index="0" speed="8.00" length="10.13" shape="-200.96,3.20 -199.40,0.60 -196.65,-1.05 -192.80,-1.60"/>
    </edge>
    <edge id=":J1_3" function="internal">
        <lane id=":J1_3_0" index="0" speed="6.51" length="9.03" shape="-192.80,1.60 -195.25,1.95 -197.00,3.00 -198.05,4.75 -198.40,7.20"/>
    </edge>
    <edge id=":J1_4" function="internal">
        <lane id=":J1_4_0" index="0" speed="13.89" length="14.40" shape="-192.80,1.60 -207.20,1.60"/>
    </edge>
    <edge id=":J1_5" function="internal">
        <lane id=":J1_5_0" index="0" speed="8.00" length="14.19" shape="-192.80,1.60 -196.65,1.05 -199.40,-0.60 -201.05,-3.35 -201.60,-7.20"/>
    </edge>
    <edge id=":J1_6" function="internal">
        <lane id=":J1_6_0" index="0" speed="6.51" length="9.03" shape="-198.40,-7.20 -198.05,-4.75 -197.00,-3.00 -195.25,-1.95 -192.80,-1.60"/>
    </edge>
    <edge id=":J1_7" function="internal">
        <lane id=":J1_7_0" index="0" speed="13.89" length="14.40" shape="-198.40,-7.20 -198.40,7.20"/>
    </edge>
    <edge id=":J1_8" function="internal">
        <lane id=":J1_8_0" index="0" speed="8.00" length="4.07" shape="-198.40,-7.20 -198.95,-3.35 -199.04,-3.20"/>
    </edge>
    <edge id=":J1_13" function="internal">
        <lane id=":J1_13_0" index="0" speed="8.00" length="10.13" shape="-199.04,-3.20 -200.60,-0.60 -203.35,1.05 -207.20,1.60"/>
    </edge>
    <edge id=":J1_9" function="internal">
        <lane id=":J1_9_0" index="0" speed="6.51" length="9.03" shape="-207.20,-1.60 -204.75,-1.95 -203.00,-3.00 -201.95,-4.75 -201.60,-7.20"/>
    </edge>
    <edge id=":J1_10" function="internal">
        <lane id=":J1_10_0" index="0" speed="13.89" length="14.40" shape="-207.20,-1.60 -192.80,-1.60"/>
    </edge>
    <edge id=":J1_11" function="internal">
        <lane id=":J1_11_0" index="0" speed="8.00" length="14.19" shape="-207.20,-1.60 -203.35,-1.05 -200.60,0.60 -198.95,3.35 -198.40,7.20"/>
    </edge>

    <edge id="-E0" from="J1" to="J0" priority="-1">
        <lane id="-E0_0" index="0" speed="13.89" length="192.80" shape="-207.20,1.60 -400.00,1.60"/>
    </edge>
    <edge id="-E1" from="J2" to="J1" priority="-1">
        <lane id="-E1_0" index="0" speed="13.89" length="192.80" shape="0.00,1.60 -192.80,1.60"/>
    </edge>
    <edge id="-E2" from="J1" to="J3" priority="-1">
        <lane id="-E2_0" index="0" speed="13.89" length="192.80" shape="-201.60,-7.20 -201.60,-200.00"/>
    </edge>
    <edge id="-E3" from="J4" to="J1" priority="-1">
        <lane id="-E3_0" index="0" speed="13.89" length="192.80" shape="-201.60,200.00 -201.60,7.20"/>
    </edge>
    <edge id="E0" from="J0" to="J1" priority="-1">
        <lane id="E0_0" index="0" speed="13.89" length="192.80" shape="-400.00,-1.60 -207.20,-1.60"/>
    </edge>
    <edge id="E1" from="J1" to="J2" priority="-1">
        <lane id="E1_0" index="0" speed="13.89" length="192.80" shape="-192.80,-1.60 0.00,-1.60"/>
    </edge>
    <edge id="E2" from="J3" to="J1" priority="-1">
        <lane id="E2_0" index="0" speed="13.89" length="192.80" shape="-198.40,-200.00 -198.40,-7.20"/>
    </edge>
    <edge id="E3" from="J1" to="J4" priority="-1">
        <lane id="E3_0" index="0" speed="13.89" length="192.80" shape="-198.40,7.20 -198.40,200.00"/>
    </edge>

    <junction id="J0" type="dead_end" x="-400.00" y="0.00" incLanes="-E0_0" intLanes="" shape="-400.00,0.00 -400.00,3.20 -400.00,0.00"/>
    <junction id="J1" type="priority" x="-200.00" y="0.00" incLanes="-E3_0 -E1_0 E2_0 E0_0" intLanes=":J1_0_0 :J1_1_0 :J1_12_0 :J1_3_0 :J1_4_0 :J1_5_0 :J1_6_0 :J1_7_0 :J1_13_0 :J1_9_0 :J1_10_0 :J1_11_0" shape="-203.20,7.20 -196.80,7.20 -196.36,4.98 -195.80,4.20 -195.02,3.64 -194.02,3.31 -192.80,3.20 -192.80,-3.20 -195.02,-3.64 -195.80,-4.20 -196.36,-4.98 -196.69,-5.98 -196.80,-7.20 -203.20,-7.20 -203.64,-4.98 -204.20,-4.20 -204.98,-3.64 -205.98,-3.31 -207.20,-3.20 -207.20,3.20 -204.98,3.64 -204.20,4.20 -203.64,4.98 -203.31,5.98">
        <request index="0"  response="000000000000" foes="000100010000" cont="0"/>
        <request index="1"  response="000000000000" foes="111100110000" cont="0"/>
        <request index="2"  response="000111000000" foes="110111110000" cont="1"/>
        <request index="3"  response="000010000000" foes="100010000000" cont="0"/>
        <request index="4"  response="000110000111" foes="100110000111" cont="0"/>
        <request index="5"  response="111110000110" foes="111110000110" cont="0"/>
        <request index="6"  response="000000000000" foes="010000000100" cont="0"/>
        <request index="7"  response="000000000000" foes="110000111100" cont="0"/>
        <request index="8"  response="000000000011" foes="110000110111" cont="1"/>
        <request index="9"  response="000000000010" foes="000000100010" cont="0"/>
        <request index="10" response="000111000110" foes="000111100110" cont="0"/>
        <request index="11" response="000110011110" foes="000110111110" cont="0"/>
    </junction>
    <junction id="J2" type="dead_end" x="0.00" y="0.00" incLanes="E1_0" intLanes="" shape="0.00,0.00 0.00,-3.20 0.00,0.00"/>
    <junction id="J3" type="dead_end" x="-200.00" y="-200.00" incLanes="-E2_0" intLanes="" shape="-200.00,-200.00 -203.20,-200.00 -200.00,-200.00"/>
    <junction id="J4" type="dead_end" x="-200.00" y="200.00" incLanes="E3_0" intLanes="" shape="-200.00,200.00 -196.80,200.00 -200.00,200.00"/>

    <junction id=":J1_12_0" type="internal" x="-200.96" y="3.20" incLanes=":J1_2_0 E2_0" intLanes=":J1_4_0 :J1_5_0 :J1_6_0 :J1_7_0 :J1_10_0 :J1_11_0"/>
    <junction id=":J1_13_0" type="internal" x="-199.04" y="-3.20" incLanes=":J1_8_0 -E3_0" intLanes=":J1_0_0 :J1_1_0 :J1_4_0 :J1_5_0 :J1_10_0 :J1_11_0"/>

    <connection from="-E1" to="E3" fromLane="0" toLane="0" via=":J1_3_0" dir="r" state="m"/>
    <connection from="-E1" to="-E0" fromLane="0" toLane="0" via=":J1_4_0" dir="s" state="m"/>
    <connection from="-E1" to="-E2" fromLane="0" toLane="0" via=":J1_5_0" dir="l" state="m"/>
    <connection from="-E3" to="-E0" fromLane="0" toLane="0" via=":J1_0_0" dir="r" state="M"/>
    <connection from="-E3" to="-E2" fromLane="0" toLane="0" via=":J1_1_0" dir="s" state="M"/>
    <connection from="-E3" to="E1" fromLane="0" toLane="0" via=":J1_2_0" dir="l" state="m"/>
    <connection from="E0" to="-E2" fromLane="0" toLane="0" via=":J1_9_0" dir="r" state="m"/>
    <connection from="E0" to="E1" fromLane="0" toLane="0" via=":J1_10_0" dir="s" state="m"/>
    <connection from="E0" to="E3" fromLane="0" toLane="0" via=":J1_11_0" dir="l" state="m"/>
    <connection from="E2" to="E1" fromLane="0" toLane="0" via=":J1_6_0" dir="r" state="M"/>
    <connection from="E2" to="E3" fromLane="0" toLane="0" via=":J1_7_0" dir="s" state="M"/>
    <connection from="E2" to="-E0" fromLane="0" toLane="0" via=":J1_8_0" dir="l" state="m"/>

    <connection from=":J1_0" to="-E0" fromLane="0" toLane="0" dir="r" state="M"/>
    <connection from=":J1_1" to="-E2" fromLane="0" toLane="0" dir="s" state="M"/>
    <connection from=":J1_2" to="E1" fromLane="0" toLane="0" via=":J1_12_0" dir="l" state="m"/>
    <connection from=":J1_12" to="E1" fromLane="0" toLane="0" dir="l" state="M"/>
    <connection from=":J1_3" to="E3" fromLane="0" toLane="0" dir="r" state="M"/>
    <connection from=":J1_4" to="-E0" fromLane="0" toLane="0" dir="s" state="M"/>
    <connection from=":J1_5" to="-E2" fromLane="0" toLane="0" dir="l" state="M"/>
    <connection from=":J1_6" to="E1" fromLane="0" toLane="0" dir="r" state="M"/>
    <connection from=":J1_7" to="E3" fromLane="0" toLane="0" dir="s" state="M"/>
    <connection from=":J1_8" to="-E0" fromLane="0" toLane="0" via=":J1_13_0" dir="l" state="m"/>
    <connection from=":J1_13" to="-E0" fromLane="0" toLane="0" dir="l" state="M"/>
    <connection from=":J1_9" to="-E2" fromLane="0" toLane="0" dir="r" state="M"/>
    <connection from=":J1_10" to="E1" fromLane="0" toLane="0" dir="s" state="M"/>
    <connection from=":J1_11" to="E3" fromLane="0" toLane="0" dir="l" state="M"/>

</net>
