<?xml version="1.0" encoding="UTF-8"?>

<!-- generated on 2024-03-18 14:34:03 by Eclipse SUMO netedit Version 1.19.0
<configuration xmlns:xsi="http://www.w3.org/2001/XMLSchema-instance" xsi:noNamespaceSchemaLocation="http://sumo.dlr.de/xsd/neteditConfiguration.xsd">

    <input>
        <sumocfg-file value="/home/sztaki/Documents/reinforcement_learning/envs/sumo/intersection/1_intersection.sumocfg"/>
        <additional-files value=""/>
        <route-files value="/home/sztaki/Documents/reinforcement_learning/envs/sumo/intersection/1_intersection.rou.xml"/>
        <sumo-net-file value="/home/sztaki/Documents/reinforcement_learning/envs/sumo/intersection/1_intersection.net.xml"/>
    </input>

    <output>
        <output-file value="/home/sztaki/Documents/reinforcement_learning/envs/sumo/intersection/1_intersection.net.xml"/>
    </output>

    <processing>
        <geometry.min-radius.fix.railways value="false"/>
        <geometry.max-grade.fix value="false"/>
        <offset.disable-normalization value="true"/>
        <lefthand value="0"/>
    </processing>

    <junctions>
        <no-turnarounds value="true"/>
        <junctions.corner-detail value="5"/>
        <junctions.limit-turn-speed value="5.50"/>
        <rectangular-lane-cut value="0"/>
    </junctions>

    <pedestrian>
        <walkingareas value="0"/>
    </pedestrian>

</configuration>
-->

<net version="1.16" junctionCornerDetail="5" limitTurnSpeed="5.50" xmlns:xsi="http://www.w3.org/2001/XMLSchema-instance" xsi:noNamespaceSchemaLocation="http://sumo.dlr.de/xsd/net_file.xsd">

    <location netOffset="0.00,0.00" convBoundary="-400.00,-300.00,200.00,300.00" origBoundary="-10000000000.00,-10000000000.00,10000000000.00,10000000000.00" projParameter="!"/>

    <edge id=":J1_0" function="internal">
        <lane id=":J1_0_0" index="0" speed="6.51" length="9.03" shape="-101.60,7.20 -101.95,4.75 -103.00,3.00 -104.75,1.95 -107.20,1.60"/>
    </edge>
    <edge id=":J1_1" function="internal">
        <lane id=":J1_1_0" index="0" speed="13.89" length="14.40" shape="-101.60,7.20 -101.60,-7.20"/>
    </edge>
    <edge id=":J1_2" function="internal">
        <lane id=":J1_2_0" index="0" speed="8.00" length="4.07" shape="-101.60,7.20 -101.05,3.35 -100.96,3.20"/>
    </edge>
    <edge id=":J1_12" function="internal">
        <lane id=":J1_12_0" index="0" speed="8.00" length="10.13" shape="-100.96,3.20 -99.40,0.60 -96.65,-1.05 -92.80,-1.60"/>
    </edge>
    <edge id=":J1_3" function="internal">
        <lane id=":J1_3_0" index="0" speed="6.51" length="9.03" shape="-92.80,1.60 -95.25,1.95 -97.00,3.00 -98.05,4.75 -98.40,7.20"/>
    </edge>
    <edge id=":J1_4" function="internal">
        <lane id=":J1_4_0" index="0" speed="13.89" length="14.40" shape="-92.80,1.60 -107.20,1.60"/>
    </edge>
    <edge id=":J1_5" function="internal">
        <lane id=":J1_5_0" index="0" speed="8.00" length="4.07" shape="-92.80,1.60 -96.65,1.05 -96.80,0.96"/>
    </edge>
    <edge id=":J1_13" function="internal">
        <lane id=":J1_13_0" index="0" speed="8.00" length="10.13" shape="-96.80,0.96 -99.40,-0.60 -101.05,-3.35 -101.60,-7.20"/>
    </edge>
    <edge id=":J1_6" function="internal">
        <lane id=":J1_6_0" index="0" speed="6.51" length="9.03" shape="-98.40,-7.20 -98.05,-4.75 -97.00,-3.00 -95.25,-1.95 -92.80,-1.60"/>
    </edge>
    <edge id=":J1_7" function="internal">
        <lane id=":J1_7_0" index="0" speed="13.89" length="14.40" shape="-98.40,-7.20 -98.40,7.20"/>
    </edge>
    <edge id=":J1_8" function="internal">
        <lane id=":J1_8_0" index="0" speed="8.00" length="4.07" shape="-98.40,-7.20 -98.95,-3.35 -99.04,-3.20"/>
    </edge>
    <edge id=":J1_14" function="internal">
        <lane id=":J1_14_0" index="0" speed="8.00" length="10.13" shape="-99.04,-3.20 -100.60,-0.60 -103.35,1.05 -107.20,1.60"/>
    </edge>
    <edge id=":J1_9" function="internal">
        <lane id=":J1_9_0" index="0" speed="6.51" length="9.03" shape="-107.20,-1.60 -104.75,-1.95 -103.00,-3.00 -101.95,-4.75 -101.60,-7.20"/>
    </edge>
    <edge id=":J1_10" function="internal">
        <lane id=":J1_10_0" index="0" speed="13.89" length="14.40" shape="-107.20,-1.60 -92.80,-1.60"/>
    </edge>
    <edge id=":J1_11" function="internal">
        <lane id=":J1_11_0" index="0" speed="8.00" length="4.07" shape="-107.20,-1.60 -103.35,-1.05 -103.20,-0.96"/>
    </edge>
    <edge id=":J1_15" function="internal">
        <lane id=":J1_15_0" index="0" speed="8.00" length="10.13" shape="-103.20,-0.96 -100.60,0.60 -98.95,3.35 -98.40,7.20"/>
    </edge>

    <edge id="-E0" from="J1" to="J0" priority="-1">
        <lane id="-E0_0" index="0" speed="13.89" length="292.80" shape="-107.20,1.60 -400.00,1.60"/>
    </edge>
    <edge id="-E1" from="J1" to="J2" priority="-1">
        <lane id="-E1_0" index="0" speed="13.89" length="292.80" shape="-101.60,-7.20 -101.60,-300.00"/>
    </edge>
    <edge id="-E2" from="J1" to="J3" priority="-1">
        <lane id="-E2_0" index="0" speed="13.89" length="292.80" shape="-92.80,-1.60 200.00,-1.60"/>
    </edge>
    <edge id="-E3" from="J1" to="J4" priority="-1">
        <lane id="-E3_0" index="0" speed="13.89" length="292.80" shape="-98.40,7.20 -98.40,300.00"/>
    </edge>
    <edge id="E0_0" from="J0" to="J1" priority="-1">
        <lane id="E0_0_0" index="0" speed="13.89" length="292.80" shape="-400.00,-1.60 -107.20,-1.60"/>
    </edge>
    <edge id="E0_1" from="J2" to="J1" priority="-1">
        <lane id="E0_1_0" index="0" speed="13.89" length="292.80" shape="-98.40,-300.00 -98.40,-7.20"/>
    </edge>
    <edge id="E0_2" from="J3" to="J1" priority="-1">
        <lane id="E0_2_0" index="0" speed="13.89" length="292.80" shape="200.00,1.60 -92.80,1.60"/>
    </edge>
    <edge id="E0_3" from="J4" to="J1" priority="-1">
        <lane id="E0_3_0" index="0" speed="13.89" length="292.80" shape="-101.60,300.00 -101.60,7.20"/>
    </edge>

    <tlLogic id="TLS_0" type="static" programID="0" offset="0">
        <phase duration="42" state="GGgrrrGGgrrr"/>
        <phase duration="3"  state="yyyrrryyyrrr"/>
        <phase duration="42" state="rrrGGgrrrGGg"/>
        <phase duration="3"  state="rrryyyrrryyy"/>
    </tlLogic>

    <junction id="J0" type="dead_end" x="-400.00" y="0.00" incLanes="-E0_0" intLanes="" shape="-400.00,0.00 -400.00,3.20 -400.00,0.00"/>
    <junction id="J1" type="traffic_light" x="-100.00" y="0.00" incLanes="E0_3_0 E0_2_0 E0_1_0 E0_0_0" intLanes=":J1_0_0 :J1_1_0 :J1_12_0 :J1_3_0 :J1_4_0 :J1_13_0 :J1_6_0 :J1_7_0 :J1_14_0 :J1_9_0 :J1_10_0 :J1_15_0" shape="-103.20,7.20 -96.80,7.20 -96.36,4.98 -95.80,4.20 -95.02,3.64 -94.02,3.31 -92.80,3.20 -92.80,-3.20 -95.02,-3.64 -95.80,-4.20 -96.36,-4.98 -96.69,-5.98 -96.80,-7.20 -103.20,-7.20 -103.64,-4.98 -104.20,-4.20 -104.98,-3.64 -105.98,-3.31 -107.20,-3.20 -107.20,3.20 -104.98,3.64 -104.20,4.20 -103.64,4.98 -103.31,5.98">
        <request index="0"  response="000000000000" foes="000100010000" cont="0"/>
        <request index="1"  response="100000100000" foes="111100110000" cont="0"/>
        <request index="2"  response="100011100000" foes="110111110000" cont="1"/>
        <request index="3"  response="000010000000" foes="100010000000" cont="0"/>
        <request index="4"  response="000110000111" foes="100110000111" cont="0"/>
        <request index="5"  response="011110000110" foes="111110000110" cont="1"/>
        <request index="6"  response="000000000000" foes="010000000100" cont="0"/>
        <request index="7"  response="100000100000" foes="110000111100" cont="0"/>
        <request index="8"  response="100000100111" foes="110000110111" cont="1"/>
        <request index="9"  response="000000000010" foes="000000100010" cont="0"/>
        <request index="10" response="000111000110" foes="000111100110" cont="0"/>
        <request index="11" response="000110111110" foes="000110111110" cont="1"/>
    </junction>
    <junction id="J2" type="dead_end" x="-100.00" y="-300.00" incLanes="-E1_0" intLanes="" shape="-100.00,-300.00 -103.20,-300.00 -100.00,-300.00"/>
    <junction id="J3" type="dead_end" x="200.00" y="0.00" incLanes="-E2_0" intLanes="" shape="200.00,0.00 200.00,-3.20 200.00,0.00"/>
    <junction id="J4" type="dead_end" x="-100.00" y="300.00" incLanes="-E3_0" intLanes="" shape="-100.00,300.00 -96.80,300.00 -100.00,300.00"/>

    <junction id=":J1_12_0" type="internal" x="-100.96" y="3.20" incLanes=":J1_2_0 E0_1_0" intLanes=":J1_4_0 :J1_5_0 :J1_6_0 :J1_7_0 :J1_10_0 :J1_11_0"/>
    <junction id=":J1_13_0" type="internal" x="-96.80" y="0.96" incLanes=":J1_5_0 E0_0_0" intLanes=":J1_1_0 :J1_2_0 :J1_7_0 :J1_8_0 :J1_9_0 :J1_10_0"/>
    <junction id=":J1_14_0" type="internal" x="-99.04" y="-3.20" incLanes=":J1_8_0 E0_3_0" intLanes=":J1_0_0 :J1_1_0 :J1_4_0 :J1_5_0 :J1_10_0 :J1_11_0"/>
    <junction id=":J1_15_0" type="internal" x="-103.20" y="-0.96" incLanes=":J1_11_0 E0_2_0" intLanes=":J1_1_0 :J1_2_0 :J1_3_0 :J1_4_0 :J1_7_0 :J1_8_0"/>

    <connection from="E0_0" to="-E1" fromLane="0" toLane="0" via=":J1_9_0" tl="TLS_0" linkIndex="9" dir="r" state="o"/>
    <connection from="E0_0" to="-E2" fromLane="0" toLane="0" via=":J1_10_0" tl="TLS_0" linkIndex="10" dir="s" state="o"/>
    <connection from="E0_0" to="-E3" fromLane="0" toLane="0" via=":J1_11_0" tl="TLS_0" linkIndex="11" dir="l" state="o"/>
    <connection from="E0_1" to="-E2" fromLane="0" toLane="0" via=":J1_6_0" tl="TLS_0" linkIndex="6" dir="r" state="O"/>
    <connection from="E0_1" to="-E3" fromLane="0" toLane="0" via=":J1_7_0" tl="TLS_0" linkIndex="7" dir="s" state="O"/>
    <connection from="E0_1" to="-E0" fromLane="0" toLane="0" via=":J1_8_0" tl="TLS_0" linkIndex="8" dir="l" state="o"/>
    <connection from="E0_2" to="-E3" fromLane="0" toLane="0" via=":J1_3_0" tl="TLS_0" linkIndex="3" dir="r" state="o"/>
    <connection from="E0_2" to="-E0" fromLane="0" toLane="0" via=":J1_4_0" tl="TLS_0" linkIndex="4" dir="s" state="o"/>
    <connection from="E0_2" to="-E1" fromLane="0" toLane="0" via=":J1_5_0" tl="TLS_0" linkIndex="5" dir="l" state="o"/>
    <connection from="E0_3" to="-E0" fromLane="0" toLane="0" via=":J1_0_0" tl="TLS_0" linkIndex="0" dir="r" state="O"/>
    <connection from="E0_3" to="-E1" fromLane="0" toLane="0" via=":J1_1_0" tl="TLS_0" linkIndex="1" dir="s" state="O"/>
    <connection from="E0_3" to="-E2" fromLane="0" toLane="0" via=":J1_2_0" tl="TLS_0" linkIndex="2" dir="l" state="o"/>

    <connection from=":J1_0" to="-E0" fromLane="0" toLane="0" dir="r" state="M"/>
    <connection from=":J1_1" to="-E1" fromLane="0" toLane="0" dir="s" state="M"/>
    <connection from=":J1_2" to="-E2" fromLane="0" toLane="0" via=":J1_12_0" dir="l" state="m"/>
    <connection from=":J1_12" to="-E2" fromLane="0" toLane="0" dir="l" state="M"/>
    <connection from=":J1_3" to="-E3" fromLane="0" toLane="0" dir="r" state="M"/>
    <connection from=":J1_4" to="-E0" fromLane="0" toLane="0" dir="s" state="M"/>
    <connection from=":J1_5" to="-E1" fromLane="0" toLane="0" via=":J1_13_0" dir="l" state="m"/>
    <connection from=":J1_13" to="-E1" fromLane="0" toLane="0" dir="l" state="M"/>
    <connection from=":J1_6" to="-E2" fromLane="0" toLane="0" dir="r" state="M"/>
    <connection from=":J1_7" to="-E3" fromLane="0" toLane="0" dir="s" state="M"/>
    <connection from=":J1_8" to="-E0" fromLane="0" toLane="0" via=":J1_14_0" dir="l" state="m"/>
    <connection from=":J1_14" to="-E0" fromLane="0" toLane="0" dir="l" state="M"/>
    <connection from=":J1_9" to="-E1" fromLane="0" toLane="0" dir="r" state="M"/>
    <connection from=":J1_10" to="-E2" fromLane="0" toLane="0" dir="s" state="M"/>
    <connection from=":J1_11" to="-E3" fromLane="0" toLane="0" via=":J1_15_0" dir="l" state="m"/>
    <connection from=":J1_15" to="-E3" fromLane="0" toLane="0" dir="l" state="M"/>

</net>
