<?xml version="1.0" encoding="UTF-8"?>

<!-- generated on 2024-03-06 10:08:15 by Eclipse SUMO netedit Version 1.19.0
<configuration xmlns:xsi="http://www.w3.org/2001/XMLSchema-instance" xsi:noNamespaceSchemaLocation="http://sumo.dlr.de/xsd/neteditConfiguration.xsd">

    <input>
        <sumocfg-file value="/home/sztaki/Documents/reinforcement_learning/envs/sumo/intersection/2_intersection.sumocfg"/>
        <additional-files value=""/>
        <route-files value="/home/sztaki/Documents/reinforcement_learning/envs/sumo/intersection/2_intersection.rou.xml"/>
        <sumo-net-file value="/home/sztaki/Documents/reinforcement_learning/envs/sumo/intersection/2_intersection.net.xml"/>
    </input>

    <output>
        <output-file value="/home/sztaki/Documents/reinforcement_learning/envs/sumo/intersection/2_intersection.net.xml"/>
    </output>

    <processing>
        <geometry.min-radius.fix.railways value="false"/>
        <geometry.max-grade.fix value="false"/>
        <offset.disable-normalization value="true"/>
        <lefthand value="0"/>
    </processing>

    <junctions>
        <no-turnarounds value="true"/>
        <junctions.corner-detail value="5"/>
        <junctions.limit-turn-speed value="5.50"/>
        <rectangular-lane-cut value="0"/>
    </junctions>

    <pedestrian>
        <walkingareas value="0"/>
    </pedestrian>

</configuration>
-->

<net version="1.16" junctionCornerDetail="5" limitTurnSpeed="5.50" xmlns:xsi="http://www.w3.org/2001/XMLSchema-instance" xsi:noNamespaceSchemaLocation="http://sumo.dlr.de/xsd/net_file.xsd">

    <location netOffset="0.00,0.00" convBoundary="-200.00,-200.00,700.00,400.00" origBoundary="-10000000000.00,-10000000000.00,10000000000.00,10000000000.00" projParameter="!"/>

    <edge id=":J6_0" function="internal">
        <lane id=":J6_0_0" index="0" speed="6.51" length="9.03" shape="98.40,107.20 98.05,104.75 97.00,103.00 95.25,101.95 92.80,101.60"/>
    </edge>
    <edge id=":J6_1" function="internal">
        <lane id=":J6_1_0" index="0" speed="13.89" length="14.40" shape="98.40,107.20 98.40,92.80"/>
    </edge>
    <edge id=":J6_2" function="internal">
        <lane id=":J6_2_0" index="0" speed="8.00" length="4.07" shape="98.40,107.20 98.95,103.35 99.04,103.20"/>
    </edge>
    <edge id=":J6_12" function="internal">
        <lane id=":J6_12_0" index="0" speed="8.00" length="10.13" shape="99.04,103.20 100.60,100.60 103.35,98.95 107.20,98.40"/>
    </edge>
    <edge id=":J6_3" function="internal">
        <lane id=":J6_3_0" index="0" speed="6.51" length="9.03" shape="107.20,101.60 104.75,101.95 103.00,103.00 101.95,104.75 101.60,107.20"/>
    </edge>
    <edge id=":J6_4" function="internal">
        <lane id=":J6_4_0" index="0" speed="13.89" length="14.40" shape="107.20,101.60 92.80,101.60"/>
    </edge>
    <edge id=":J6_5" function="internal">
        <lane id=":J6_5_0" index="0" speed="8.00" length="4.07" shape="107.20,101.60 103.35,101.05 103.20,100.96"/>
    </edge>
    <edge id=":J6_13" function="internal">
        <lane id=":J6_13_0" index="0" speed="8.00" length="10.13" shape="103.20,100.96 100.60,99.40 98.95,96.65 98.40,92.80"/>
    </edge>
    <edge id=":J6_6" function="internal">
        <lane id=":J6_6_0" index="0" speed="6.51" length="9.03" shape="101.60,92.80 101.95,95.25 103.00,97.00 104.75,98.05 107.20,98.40"/>
    </edge>
    <edge id=":J6_7" function="internal">
        <lane id=":J6_7_0" index="0" speed="13.89" length="14.40" shape="101.60,92.80 101.60,107.20"/>
    </edge>
    <edge id=":J6_8" function="internal">
        <lane id=":J6_8_0" index="0" speed="8.00" length="4.07" shape="101.60,92.80 101.05,96.65 100.96,96.80"/>
    </edge>
    <edge id=":J6_14" function="internal">
        <lane id=":J6_14_0" index="0" speed="8.00" length="10.13" shape="100.96,96.80 99.40,99.40 96.65,101.05 92.80,101.60"/>
    </edge>
    <edge id=":J6_9" function="internal">
        <lane id=":J6_9_0" index="0" speed="6.51" length="9.03" shape="92.80,98.40 95.25,98.05 97.00,97.00 98.05,95.25 98.40,92.80"/>
    </edge>
    <edge id=":J6_10" function="internal">
        <lane id=":J6_10_0" index="0" speed="13.89" length="14.40" shape="92.80,98.40 107.20,98.40"/>
    </edge>
    <edge id=":J6_11" function="internal">
        <lane id=":J6_11_0" index="0" speed="8.00" length="4.07" shape="92.80,98.40 96.65,98.95 96.80,99.04"/>
    </edge>
    <edge id=":J6_15" function="internal">
        <lane id=":J6_15_0" index="0" speed="8.00" length="10.13" shape="96.80,99.04 99.40,100.60 101.05,103.35 101.60,107.20"/>
    </edge>
    <edge id=":J8_0" function="internal">
        <lane id=":J8_0_0" index="0" speed="6.51" length="9.03" shape="398.40,107.20 398.05,104.75 397.00,103.00 395.25,101.95 392.80,101.60"/>
    </edge>
    <edge id=":J8_1" function="internal">
        <lane id=":J8_1_0" index="0" speed="13.89" length="14.40" shape="398.40,107.20 398.40,92.80"/>
    </edge>
    <edge id=":J8_2" function="internal">
        <lane id=":J8_2_0" index="0" speed="8.00" length="4.07" shape="398.40,107.20 398.95,103.35 399.04,103.20"/>
    </edge>
    <edge id=":J8_12" function="internal">
        <lane id=":J8_12_0" index="0" speed="8.00" length="10.13" shape="399.04,103.20 400.60,100.60 403.35,98.95 407.20,98.40"/>
    </edge>
    <edge id=":J8_3" function="internal">
        <lane id=":J8_3_0" index="0" speed="6.51" length="9.03" shape="407.20,101.60 404.75,101.95 403.00,103.00 401.95,104.75 401.60,107.20"/>
    </edge>
    <edge id=":J8_4" function="internal">
        <lane id=":J8_4_0" index="0" speed="13.89" length="14.40" shape="407.20,101.60 392.80,101.60"/>
    </edge>
    <edge id=":J8_5" function="internal">
        <lane id=":J8_5_0" index="0" speed="8.00" length="4.07" shape="407.20,101.60 403.35,101.05 403.20,100.96"/>
    </edge>
    <edge id=":J8_13" function="internal">
        <lane id=":J8_13_0" index="0" speed="8.00" length="10.13" shape="403.20,100.96 400.60,99.40 398.95,96.65 398.40,92.80"/>
    </edge>
    <edge id=":J8_6" function="internal">
        <lane id=":J8_6_0" index="0" speed="6.51" length="9.03" shape="401.60,92.80 401.95,95.25 403.00,97.00 404.75,98.05 407.20,98.40"/>
    </edge>
    <edge id=":J8_7" function="internal">
        <lane id=":J8_7_0" index="0" speed="13.89" length="14.40" shape="401.60,92.80 401.60,107.20"/>
    </edge>
    <edge id=":J8_8" function="internal">
        <lane id=":J8_8_0" index="0" speed="8.00" length="4.07" shape="401.60,92.80 401.05,96.65 400.96,96.80"/>
    </edge>
    <edge id=":J8_14" function="internal">
        <lane id=":J8_14_0" index="0" speed="8.00" length="10.13" shape="400.96,96.80 399.40,99.40 396.65,101.05 392.80,101.60"/>
    </edge>
    <edge id=":J8_9" function="internal">
        <lane id=":J8_9_0" index="0" speed="6.51" length="9.03" shape="392.80,98.40 395.25,98.05 397.00,97.00 398.05,95.25 398.40,92.80"/>
    </edge>
    <edge id=":J8_10" function="internal">
        <lane id=":J8_10_0" index="0" speed="13.89" length="14.40" shape="392.80,98.40 407.20,98.40"/>
    </edge>
    <edge id=":J8_11" function="internal">
        <lane id=":J8_11_0" index="0" speed="8.00" length="4.07" shape="392.80,98.40 396.65,98.95 396.80,99.04"/>
    </edge>
    <edge id=":J8_15" function="internal">
        <lane id=":J8_15_0" index="0" speed="8.00" length="10.13" shape="396.80,99.04 399.40,100.60 401.05,103.35 401.60,107.20"/>
    </edge>

    <edge id="-E10" from="J6" to="J12" priority="-1">
        <lane id="-E10_0" index="0" speed="13.89" length="292.80" shape="101.60,107.20 101.60,400.00"/>
    </edge>
    <edge id="-E4" from="J6" to="J5" priority="-1">
        <lane id="-E4_0" index="0" speed="13.89" length="292.80" shape="92.80,101.60 -200.00,101.60"/>
    </edge>
    <edge id="-E5" from="J6" to="J7" priority="-1">
        <lane id="-E5_0" index="0" speed="13.89" length="292.80" shape="98.40,92.80 98.40,-200.00"/>
    </edge>
    <edge id="-E6" from="J8" to="J6" priority="-1">
        <lane id="-E6_0" index="0" speed="13.89" length="285.60" shape="392.80,101.60 107.20,101.60"/>
    </edge>
    <edge id="-E7" from="J8" to="J9" priority="-1">
        <lane id="-E7_0" index="0" speed="13.89" length="292.80" shape="398.40,92.80 398.40,-200.00"/>
    </edge>
    <edge id="-E8" from="J10" to="J8" priority="-1">
        <lane id="-E8_0" index="0" speed="13.89" length="292.80" shape="700.00,101.60 407.20,101.60"/>
    </edge>
    <edge id="-E9" from="J8" to="J11" priority="-1">
        <lane id="-E9_0" index="0" speed="13.89" length="292.80" shape="401.60,107.20 401.60,400.00"/>
    </edge>
    <edge id="E10" from="J12" to="J6" priority="-1">
        <lane id="E10_0" index="0" speed="13.89" length="292.80" shape="98.40,400.00 98.40,107.20"/>
    </edge>
    <edge id="E4" from="J5" to="J6" priority="-1">
        <lane id="E4_0" index="0" speed="13.89" length="292.80" shape="-200.00,98.40 92.80,98.40"/>
    </edge>
    <edge id="E5" from="J7" to="J6" priority="-1">
        <lane id="E5_0" index="0" speed="13.89" length="292.80" shape="101.60,-200.00 101.60,92.80"/>
    </edge>
    <edge id="E6" from="J6" to="J8" priority="-1">
        <lane id="E6_0" index="0" speed="13.89" length="285.60" shape="107.20,98.40 392.80,98.40"/>
    </edge>
    <edge id="E7" from="J9" to="J8" priority="-1">
        <lane id="E7_0" index="0" speed="13.89" length="292.80" shape="401.60,-200.00 401.60,92.80"/>
    </edge>
    <edge id="E8" from="J8" to="J10" priority="-1">
        <lane id="E8_0" index="0" speed="13.89" length="292.80" shape="407.20,98.40 700.00,98.40"/>
    </edge>
    <edge id="E9" from="J11" to="J8" priority="-1">
        <lane id="E9_0" index="0" speed="13.89" length="292.80" shape="398.40,400.00 398.40,107.20"/>
    </edge>

    <tlLogic id="J6" type="static" programID="0" offset="0">
        <phase duration="42" state="GGgrrrGGgrrr"/>
        <phase duration="3"  state="yyyrrryyyrrr"/>
        <phase duration="42" state="rrrGGgrrrGGg"/>
        <phase duration="3"  state="rrryyyrrryyy"/>
    </tlLogic>
    <tlLogic id="J8" type="static" programID="0" offset="0">
        <phase duration="42" state="GGgrrrGGgrrr"/>
        <phase duration="3"  state="yyyrrryyyrrr"/>
        <phase duration="42" state="rrrGGgrrrGGg"/>
        <phase duration="3"  state="rrryyyrrryyy"/>
    </tlLogic>

    <junction id="J10" type="dead_end" x="700.00" y="100.00" incLanes="E8_0" intLanes="" shape="700.00,100.00 700.00,96.80 700.00,100.00"/>
    <junction id="J11" type="dead_end" x="400.00" y="400.00" incLanes="-E9_0" intLanes="" shape="400.00,400.00 403.20,400.00 400.00,400.00"/>
    <junction id="J12" type="dead_end" x="100.00" y="400.00" incLanes="-E10_0" intLanes="" shape="100.00,400.00 103.20,400.00 100.00,400.00"/>
    <junction id="J5" type="dead_end" x="-200.00" y="100.00" incLanes="-E4_0" intLanes="" shape="-200.00,100.00 -200.00,103.20 -200.00,100.00"/>
    <junction id="J6" type="traffic_light" x="100.00" y="100.00" incLanes="E10_0 -E6_0 E5_0 E4_0" intLanes=":J6_0_0 :J6_1_0 :J6_12_0 :J6_3_0 :J6_4_0 :J6_13_0 :J6_6_0 :J6_7_0 :J6_14_0 :J6_9_0 :J6_10_0 :J6_15_0" shape="96.80,107.20 103.20,107.20 103.64,104.98 104.20,104.20 104.98,103.64 105.98,103.31 107.20,103.20 107.20,96.80 104.98,96.36 104.20,95.80 103.64,95.02 103.31,94.02 103.20,92.80 96.80,92.80 96.36,95.02 95.80,95.80 95.02,96.36 94.02,96.69 92.80,96.80 92.80,103.20 95.02,103.64 95.80,104.20 96.36,104.98 96.69,105.98">
        <request index="0"  response="000000000000" foes="000100010000" cont="0"/>
        <request index="1"  response="100000100000" foes="111100110000" cont="0"/>
        <request index="2"  response="100111100000" foes="110111110000" cont="1"/>
        <request index="3"  response="000010000000" foes="100010000000" cont="0"/>
        <request index="4"  response="000110000111" foes="100110000111" cont="0"/>
        <request index="5"  response="111110000110" foes="111110000110" cont="1"/>
        <request index="6"  response="000000000000" foes="010000000100" cont="0"/>
        <request index="7"  response="100000100000" foes="110000111100" cont="0"/>
        <request index="8"  response="100000100011" foes="110000110111" cont="1"/>
        <request index="9"  response="000000000010" foes="000000100010" cont="0"/>
        <request index="10" response="000111000110" foes="000111100110" cont="0"/>
        <request index="11" response="000110011110" foes="000110111110" cont="1"/>
    </junction>
    <junction id="J7" type="dead_end" x="100.00" y="-200.00" incLanes="-E5_0" intLanes="" shape="100.00,-200.00 96.80,-200.00 100.00,-200.00"/>
    <junction id="J8" type="traffic_light" x="400.00" y="100.00" incLanes="E9_0 -E8_0 E7_0 E6_0" intLanes=":J8_0_0 :J8_1_0 :J8_12_0 :J8_3_0 :J8_4_0 :J8_13_0 :J8_6_0 :J8_7_0 :J8_14_0 :J8_9_0 :J8_10_0 :J8_15_0" shape="396.80,107.20 403.20,107.20 403.64,104.98 404.20,104.20 404.98,103.64 405.98,103.31 407.20,103.20 407.20,96.80 404.98,96.36 404.20,95.80 403.64,95.02 403.31,94.02 403.20,92.80 396.80,92.80 396.36,95.02 395.80,95.80 395.02,96.36 394.02,96.69 392.80,96.80 392.80,103.20 395.02,103.64 395.80,104.20 396.36,104.98 396.69,105.98">
        <request index="0"  response="000000000000" foes="000100010000" cont="0"/>
        <request index="1"  response="100000100000" foes="111100110000" cont="0"/>
        <request index="2"  response="100011100000" foes="110111110000" cont="1"/>
        <request index="3"  response="000010000000" foes="100010000000" cont="0"/>
        <request index="4"  response="000110000111" foes="100110000111" cont="0"/>
        <request index="5"  response="111110000110" foes="111110000110" cont="1"/>
        <request index="6"  response="000000000000" foes="010000000100" cont="0"/>
        <request index="7"  response="100000100000" foes="110000111100" cont="0"/>
        <request index="8"  response="100000100111" foes="110000110111" cont="1"/>
        <request index="9"  response="000000000010" foes="000000100010" cont="0"/>
        <request index="10" response="000111000110" foes="000111100110" cont="0"/>
        <request index="11" response="000110011110" foes="000110111110" cont="1"/>
    </junction>
    <junction id="J9" type="dead_end" x="400.00" y="-200.00" incLanes="-E7_0" intLanes="" shape="400.00,-200.00 396.80,-200.00 400.00,-200.00"/>

    <junction id=":J6_12_0" type="internal" x="99.04" y="103.20" incLanes=":J6_2_0 E5_0" intLanes=":J6_4_0 :J6_5_0 :J6_6_0 :J6_7_0 :J6_10_0 :J6_11_0"/>
    <junction id=":J6_13_0" type="internal" x="103.20" y="100.96" incLanes=":J6_5_0 E4_0" intLanes=":J6_1_0 :J6_2_0 :J6_7_0 :J6_8_0 :J6_9_0 :J6_10_0"/>
    <junction id=":J6_14_0" type="internal" x="100.96" y="96.80" incLanes=":J6_8_0 E10_0" intLanes=":J6_0_0 :J6_1_0 :J6_4_0 :J6_5_0 :J6_10_0 :J6_11_0"/>
    <junction id=":J6_15_0" type="internal" x="96.80" y="99.04" incLanes=":J6_11_0 -E6_0" intLanes=":J6_1_0 :J6_2_0 :J6_3_0 :J6_4_0 :J6_7_0 :J6_8_0"/>
    <junction id=":J8_12_0" type="internal" x="399.04" y="103.20" incLanes=":J8_2_0 E7_0" intLanes=":J8_4_0 :J8_5_0 :J8_6_0 :J8_7_0 :J8_10_0 :J8_11_0"/>
    <junction id=":J8_13_0" type="internal" x="403.20" y="100.96" incLanes=":J8_5_0 E6_0" intLanes=":J8_1_0 :J8_2_0 :J8_7_0 :J8_8_0 :J8_9_0 :J8_10_0"/>
    <junction id=":J8_14_0" type="internal" x="400.96" y="96.80" incLanes=":J8_8_0 E9_0" intLanes=":J8_0_0 :J8_1_0 :J8_4_0 :J8_5_0 :J8_10_0 :J8_11_0"/>
    <junction id=":J8_15_0" type="internal" x="396.80" y="99.04" incLanes=":J8_11_0 -E8_0" intLanes=":J8_1_0 :J8_2_0 :J8_3_0 :J8_4_0 :J8_7_0 :J8_8_0"/>

    <connection from="-E6" to="-E10" fromLane="0" toLane="0" via=":J6_3_0" tl="J6" linkIndex="3" dir="r" state="o"/>
    <connection from="-E6" to="-E4" fromLane="0" toLane="0" via=":J6_4_0" tl="J6" linkIndex="4" dir="s" state="o"/>
    <connection from="-E6" to="-E5" fromLane="0" toLane="0" via=":J6_5_0" tl="J6" linkIndex="5" dir="l" state="o"/>
    <connection from="-E8" to="-E9" fromLane="0" toLane="0" via=":J8_3_0" tl="J8" linkIndex="3" dir="r" state="o"/>
    <connection from="-E8" to="-E6" fromLane="0" toLane="0" via=":J8_4_0" tl="J8" linkIndex="4" dir="s" state="o"/>
    <connection from="-E8" to="-E7" fromLane="0" toLane="0" via=":J8_5_0" tl="J8" linkIndex="5" dir="l" state="o"/>
    <connection from="E10" to="-E4" fromLane="0" toLane="0" via=":J6_0_0" tl="J6" linkIndex="0" dir="r" state="O"/>
    <connection from="E10" to="-E5" fromLane="0" toLane="0" via=":J6_1_0" tl="J6" linkIndex="1" dir="s" state="O"/>
    <connection from="E10" to="E6" fromLane="0" toLane="0" via=":J6_2_0" tl="J6" linkIndex="2" dir="l" state="o"/>
    <connection from="E4" to="-E5" fromLane="0" toLane="0" via=":J6_9_0" tl="J6" linkIndex="9" dir="r" state="o"/>
    <connection from="E4" to="E6" fromLane="0" toLane="0" via=":J6_10_0" tl="J6" linkIndex="10" dir="s" state="o"/>
    <connection from="E4" to="-E10" fromLane="0" toLane="0" via=":J6_11_0" tl="J6" linkIndex="11" dir="l" state="o"/>
    <connection from="E5" to="E6" fromLane="0" toLane="0" via=":J6_6_0" tl="J6" linkIndex="6" dir="r" state="O"/>
    <connection from="E5" to="-E10" fromLane="0" toLane="0" via=":J6_7_0" tl="J6" linkIndex="7" dir="s" state="O"/>
    <connection from="E5" to="-E4" fromLane="0" toLane="0" via=":J6_8_0" tl="J6" linkIndex="8" dir="l" state="o"/>
    <connection from="E6" to="-E7" fromLane="0" toLane="0" via=":J8_9_0" tl="J8" linkIndex="9" dir="r" state="o"/>
    <connection from="E6" to="E8" fromLane="0" toLane="0" via=":J8_10_0" tl="J8" linkIndex="10" dir="s" state="o"/>
    <connection from="E6" to="-E9" fromLane="0" toLane="0" via=":J8_11_0" tl="J8" linkIndex="11" dir="l" state="o"/>
    <connection from="E7" to="E8" fromLane="0" toLane="0" via=":J8_6_0" tl="J8" linkIndex="6" dir="r" state="O"/>
    <connection from="E7" to="-E9" fromLane="0" toLane="0" via=":J8_7_0" tl="J8" linkIndex="7" dir="s" state="O"/>
    <connection from="E7" to="-E6" fromLane="0" toLane="0" via=":J8_8_0" tl="J8" linkIndex="8" dir="l" state="o"/>
    <connection from="E9" to="-E6" fromLane="0" toLane="0" via=":J8_0_0" tl="J8" linkIndex="0" dir="r" state="O"/>
    <connection from="E9" to="-E7" fromLane="0" toLane="0" via=":J8_1_0" tl="J8" linkIndex="1" dir="s" state="O"/>
    <connection from="E9" to="E8" fromLane="0" toLane="0" via=":J8_2_0" tl="J8" linkIndex="2" dir="l" state="o"/>

    <connection from=":J6_0" to="-E4" fromLane="0" toLane="0" dir="r" state="M"/>
    <connection from=":J6_1" to="-E5" fromLane="0" toLane="0" dir="s" state="M"/>
    <connection from=":J6_2" to="E6" fromLane="0" toLane="0" via=":J6_12_0" dir="l" state="m"/>
    <connection from=":J6_12" to="E6" fromLane="0" toLane="0" dir="l" state="M"/>
    <connection from=":J6_3" to="-E10" fromLane="0" toLane="0" dir="r" state="M"/>
    <connection from=":J6_4" to="-E4" fromLane="0" toLane="0" dir="s" state="M"/>
    <connection from=":J6_5" to="-E5" fromLane="0" toLane="0" via=":J6_13_0" dir="l" state="m"/>
    <connection from=":J6_13" to="-E5" fromLane="0" toLane="0" dir="l" state="M"/>
    <connection from=":J6_6" to="E6" fromLane="0" toLane="0" dir="r" state="M"/>
    <connection from=":J6_7" to="-E10" fromLane="0" toLane="0" dir="s" state="M"/>
    <connection from=":J6_8" to="-E4" fromLane="0" toLane="0" via=":J6_14_0" dir="l" state="m"/>
    <connection from=":J6_14" to="-E4" fromLane="0" toLane="0" dir="l" state="M"/>
    <connection from=":J6_9" to="-E5" fromLane="0" toLane="0" dir="r" state="M"/>
    <connection from=":J6_10" to="E6" fromLane="0" toLane="0" dir="s" state="M"/>
    <connection from=":J6_11" to="-E10" fromLane="0" toLane="0" via=":J6_15_0" dir="l" state="m"/>
    <connection from=":J6_15" to="-E10" fromLane="0" toLane="0" dir="l" state="M"/>
    <connection from=":J8_0" to="-E6" fromLane="0" toLane="0" dir="r" state="M"/>
    <connection from=":J8_1" to="-E7" fromLane="0" toLane="0" dir="s" state="M"/>
    <connection from=":J8_2" to="E8" fromLane="0" toLane="0" via=":J8_12_0" dir="l" state="m"/>
    <connection from=":J8_12" to="E8" fromLane="0" toLane="0" dir="l" state="M"/>
    <connection from=":J8_3" to="-E9" fromLane="0" toLane="0" dir="r" state="M"/>
    <connection from=":J8_4" to="-E6" fromLane="0" toLane="0" dir="s" state="M"/>
    <connection from=":J8_5" to="-E7" fromLane="0" toLane="0" via=":J8_13_0" dir="l" state="m"/>
    <connection from=":J8_13" to="-E7" fromLane="0" toLane="0" dir="l" state="M"/>
    <connection from=":J8_6" to="E8" fromLane="0" toLane="0" dir="r" state="M"/>
    <connection from=":J8_7" to="-E9" fromLane="0" toLane="0" dir="s" state="M"/>
    <connection from=":J8_8" to="-E6" fromLane="0" toLane="0" via=":J8_14_0" dir="l" state="m"/>
    <connection from=":J8_14" to="-E6" fromLane="0" toLane="0" dir="l" state="M"/>
    <connection from=":J8_9" to="-E7" fromLane="0" toLane="0" dir="r" state="M"/>
    <connection from=":J8_10" to="E8" fromLane="0" toLane="0" dir="s" state="M"/>
    <connection from=":J8_11" to="-E9" fromLane="0" toLane="0" via=":J8_15_0" dir="l" state="m"/>
    <connection from=":J8_15" to="-E9" fromLane="0" toLane="0" dir="l" state="M"/>

</net>
