<?xml version="1.0" encoding="UTF-8"?>

<!-- generated on 2024-03-06 10:08:39 by Eclipse SUMO netedit Version 1.19.0
-->

<routes xmlns:xsi="http://www.w3.org/2001/XMLSchema-instance" xsi:noNamespaceSchemaLocation="http://sumo.dlr.de/xsd/routes_file.xsd">
    <!-- Vehicles, persons and containers (sorted by depart) -->
    <flow id="f_0" begin="0.00" from="E7" to="-E11" end="3600.00" vehsPerHour="100"/>
    <flow id="f_1" begin="0.00" from="E7" to="-E10" end="3600.00" vehsPerHour="100"/>
    <flow id="f_10" begin="0.00" from="E11" to="E11" end="3600.00" vehsPerHour="100"/>
    <flow id="f_11" begin="0.00" from="E11" to="E6" end="3600.00" vehsPerHour="100"/>
    <flow id="f_12" begin="0.00" from="E11" to="-E0" end="3600.00" vehsPerHour="100"/>
    <flow id="f_13" begin="0.00" from="E11" to="-E7" end="3600.00" vehsPerHour="100"/>
    <flow id="f_14" begin="0.00" from="E10" to="E9" end="3600.00" vehsPerHour="100"/>
    <flow id="f_15" begin="0.00" from="E10" to="E4" end="3600.00" vehsPerHour="100"/>
    <flow id="f_16" begin="0.00" from="E10" to="E5" end="3600.00" vehsPerHour="100"/>
    <flow id="f_17" begin="0.00" from="E10" to="E6" end="3600.00" vehsPerHour="100"/>
    <flow id="f_18" begin="0.00" from="E10" to="-E0" end="3600.00" vehsPerHour="100"/>
    <flow id="f_19" begin="0.00" from="E10" to="-E7" end="3600.00" vehsPerHour="100"/>
    <flow id="f_2" begin="0.00" from="E7" to="E9" end="3600.00" vehsPerHour="100"/>
    <flow id="f_20" begin="0.00" from="E10" to="-E11" end="3600.00" vehsPerHour="100"/>
    <flow id="f_21" begin="0.00" from="-E9" to="E4" end="3600.00" vehsPerHour="100"/>
    <flow id="f_22" begin="0.00" from="-E9" to="E5" end="3600.00" vehsPerHour="100"/>
    <flow id="f_23" begin="0.00" from="-E9" to="E6" end="3600.00" vehsPerHour="100"/>
    <flow id="f_24" begin="0.00" from="-E9" to="-E0" end="3600.00" vehsPerHour="100"/>
    <flow id="f_25" begin="0.00" from="-E9" to="-E7" end="3600.00" vehsPerHour="100"/>
    <flow id="f_26" begin="0.00" from="-E9" to="-E11" end="3600.00" vehsPerHour="100"/>
    <flow id="f_27" begin="0.00" from="-E9" to="-E10" end="3600.00" vehsPerHour="100"/>
    <flow id="f_28" begin="0.00" from="-E4" to="E5" end="3600.00" vehsPerHour="100"/>
    <flow id="f_29" begin="0.00" from="-E4" to="E6" end="3600.00" vehsPerHour="100"/>
    <flow id="f_3" begin="0.00" from="E7" to="E4" end="3600.00" vehsPerHour="100"/>
    <flow id="f_30" begin="0.00" from="-E4" to="-E0" end="3600.00" vehsPerHour="100"/>
    <flow id="f_31" begin="0.00" from="-E4" to="-E7" end="3600.00" vehsPerHour="100"/>
    <flow id="f_32" begin="0.00" from="-E4" to="-E11" end="3600.00" vehsPerHour="100"/>
    <flow id="f_33" begin="0.00" from="-E4" to="-E10" end="3600.00" vehsPerHour="100"/>
    <flow id="f_34" begin="0.00" from="-E4" to="E9" end="3600.00" vehsPerHour="100"/>
    <flow id="f_35" begin="0.00" from="-E5" to="E6" end="3600.00" vehsPerHour="100"/>
    <flow id="f_36" begin="0.00" from="-E5" to="-E7" end="3600.00" vehsPerHour="100"/>
    <flow id="f_37" begin="0.00" from="-E5" to="-E11" end="3600.00" vehsPerHour="100"/>
    <flow id="f_38" begin="0.00" from="-E5" to="-E11" end="3600.00" vehsPerHour="100"/>
    <flow id="f_39" begin="0.00" from="-E5" to="-E10" end="3600.00" vehsPerHour="100"/>
    <flow id="f_4" begin="0.00" from="E7" to="E5" end="3600.00" vehsPerHour="100"/>
    <flow id="f_40" begin="0.00" from="-E5" to="E9" end="3600.00" vehsPerHour="100"/>
    <flow id="f_41" begin="0.00" from="-E5" to="E4" end="3600.00" vehsPerHour="100"/>
    <flow id="f_42" begin="0.00" from="-E6" to="-E0" end="3600.00" vehsPerHour="100"/>
    <flow id="f_43" begin="0.00" from="-E6" to="-E7" end="3600.00" vehsPerHour="100"/>
    <flow id="f_44" begin="0.00" from="-E6" to="-E11" end="3600.00" vehsPerHour="100"/>
    <flow id="f_45" begin="0.00" from="-E6" to="-E10" end="3600.00" vehsPerHour="100"/>
    <flow id="f_46" begin="0.00" from="-E6" to="E9" end="3600.00" vehsPerHour="100"/>
    <flow id="f_47" begin="0.00" from="-E6" to="E4" end="3600.00" vehsPerHour="100"/>
    <flow id="f_48" begin="0.00" from="-E6" to="E5" end="3600.00" vehsPerHour="100"/>
    <flow id="f_49" begin="0.00" from="E0" to="-E7" end="3600.00" vehsPerHour="100"/>
    <flow id="f_5" begin="0.00" from="E7" to="E6" end="3600.00" vehsPerHour="100"/>
    <flow id="f_50" begin="0.00" from="E0" to="-E11" end="3600.00" vehsPerHour="100"/>
    <flow id="f_51" begin="0.00" from="E0" to="-E10" end="3600.00" vehsPerHour="100"/>
    <flow id="f_52" begin="0.00" from="E0" to="E9" end="3600.00" vehsPerHour="100"/>
    <flow id="f_53" begin="0.00" from="E0" to="E4" end="3600.00" vehsPerHour="100"/>
    <flow id="f_54" begin="0.00" from="E0" to="E5" end="3600.00" vehsPerHour="100"/>
    <flow id="f_55" begin="0.00" from="E0" to="E6" end="3600.00" vehsPerHour="100"/>
    <flow id="f_6" begin="0.00" from="E7" to="-E0" end="3600.00" vehsPerHour="100"/>
    <flow id="f_7" begin="0.00" from="E11" to="-E10" end="3600.00" vehsPerHour="100"/>
    <flow id="f_8" begin="0.00" from="E11" to="E9" end="3600.00" vehsPerHour="100"/>
    <flow id="f_9" begin="0.00" from="E11" to="E4" end="3600.00" vehsPerHour="100"/>
</routes>
