<?xml version="1.0" encoding="UTF-8"?>

<!-- generated on 2024-03-18 13:29:56 by Eclipse SUMO netedit Version 1.19.0
<configuration xmlns:xsi="http://www.w3.org/2001/XMLSchema-instance" xsi:noNamespaceSchemaLocation="http://sumo.dlr.de/xsd/neteditConfiguration.xsd">

    <input>
        <sumocfg-file value="/home/sztaki/Documents/reinforcement_learning/envs/sumo/intersection/8_intersections.sumocfg"/>
        <sumo-net-file value="/home/sztaki/Documents/reinforcement_learning/envs/sumo/intersection/8_intersections.net.xml"/>
    </input>

    <output>
        <output-file value="/home/sztaki/Documents/reinforcement_learning/envs/sumo/intersection/8_intersections.net.xml"/>
    </output>

    <processing>
        <geometry.min-radius.fix.railways value="false"/>
        <geometry.max-grade.fix value="false"/>
        <offset.disable-normalization value="true"/>
        <lefthand value="0"/>
    </processing>

    <junctions>
        <no-turnarounds value="true"/>
        <junctions.corner-detail value="5"/>
        <junctions.limit-turn-speed value="5.50"/>
        <rectangular-lane-cut value="0"/>
    </junctions>

    <pedestrian>
        <walkingareas value="0"/>
    </pedestrian>

</configuration>
-->

<net version="1.16" junctionCornerDetail="5" limitTurnSpeed="5.50" xmlns:xsi="http://www.w3.org/2001/XMLSchema-instance" xsi:noNamespaceSchemaLocation="http://sumo.dlr.de/xsd/net_file.xsd">

    <location netOffset="0.00,0.00" convBoundary="-100.00,-500.00,1400.00,400.00" origBoundary="-10000000000.00,-10000000000.00,10000000000.00,10000000000.00" projParameter="!"/>

    <edge id=":J1_0" function="internal">
        <lane id=":J1_0_0" index="0" speed="6.51" length="9.03" shape="198.40,107.20 198.05,104.75 197.00,103.00 195.25,101.95 192.80,101.60"/>
    </edge>
    <edge id=":J1_1" function="internal">
        <lane id=":J1_1_0" index="0" speed="13.89" length="14.40" shape="198.40,107.20 198.40,92.80"/>
    </edge>
    <edge id=":J1_2" function="internal">
        <lane id=":J1_2_0" index="0" speed="8.00" length="4.07" shape="198.40,107.20 198.95,103.35 199.04,103.20"/>
    </edge>
    <edge id=":J1_12" function="internal">
        <lane id=":J1_12_0" index="0" speed="8.00" length="10.13" shape="199.04,103.20 200.60,100.60 203.35,98.95 207.20,98.40"/>
    </edge>
    <edge id=":J1_3" function="internal">
        <lane id=":J1_3_0" index="0" speed="6.51" length="9.03" shape="207.20,101.60 204.75,101.95 203.00,103.00 201.95,104.75 201.60,107.20"/>
    </edge>
    <edge id=":J1_4" function="internal">
        <lane id=":J1_4_0" index="0" speed="13.89" length="14.40" shape="207.20,101.60 192.80,101.60"/>
    </edge>
    <edge id=":J1_5" function="internal">
        <lane id=":J1_5_0" index="0" speed="8.00" length="4.07" shape="207.20,101.60 203.35,101.05 203.20,100.96"/>
    </edge>
    <edge id=":J1_13" function="internal">
        <lane id=":J1_13_0" index="0" speed="8.00" length="10.13" shape="203.20,100.96 200.60,99.40 198.95,96.65 198.40,92.80"/>
    </edge>
    <edge id=":J1_6" function="internal">
        <lane id=":J1_6_0" index="0" speed="6.51" length="9.03" shape="201.60,92.80 201.95,95.25 203.00,97.00 204.75,98.05 207.20,98.40"/>
    </edge>
    <edge id=":J1_7" function="internal">
        <lane id=":J1_7_0" index="0" speed="13.89" length="14.40" shape="201.60,92.80 201.60,107.20"/>
    </edge>
    <edge id=":J1_8" function="internal">
        <lane id=":J1_8_0" index="0" speed="8.00" length="4.07" shape="201.60,92.80 201.05,96.65 200.96,96.80"/>
    </edge>
    <edge id=":J1_14" function="internal">
        <lane id=":J1_14_0" index="0" speed="8.00" length="10.13" shape="200.96,96.80 199.40,99.40 196.65,101.05 192.80,101.60"/>
    </edge>
    <edge id=":J1_9" function="internal">
        <lane id=":J1_9_0" index="0" speed="6.51" length="9.03" shape="192.80,98.40 195.25,98.05 197.00,97.00 198.05,95.25 198.40,92.80"/>
    </edge>
    <edge id=":J1_10" function="internal">
        <lane id=":J1_10_0" index="0" speed="13.89" length="14.40" shape="192.80,98.40 207.20,98.40"/>
    </edge>
    <edge id=":J1_11" function="internal">
        <lane id=":J1_11_0" index="0" speed="8.00" length="4.07" shape="192.80,98.40 196.65,98.95 196.80,99.04"/>
    </edge>
    <edge id=":J1_15" function="internal">
        <lane id=":J1_15_0" index="0" speed="8.00" length="10.13" shape="196.80,99.04 199.40,100.60 201.05,103.35 201.60,107.20"/>
    </edge>
    <edge id=":J10_0" function="internal">
        <lane id=":J10_0_0" index="0" speed="6.51" length="9.03" shape="1098.40,107.20 1098.05,104.75 1097.00,103.00 1095.25,101.95 1092.80,101.60"/>
    </edge>
    <edge id=":J10_1" function="internal">
        <lane id=":J10_1_0" index="0" speed="13.89" length="14.40" shape="1098.40,107.20 1098.40,92.80"/>
    </edge>
    <edge id=":J10_2" function="internal">
        <lane id=":J10_2_0" index="0" speed="8.00" length="4.07" shape="1098.40,107.20 1098.95,103.35 1099.04,103.20"/>
    </edge>
    <edge id=":J10_12" function="internal">
        <lane id=":J10_12_0" index="0" speed="8.00" length="10.13" shape="1099.04,103.20 1100.60,100.60 1103.35,98.95 1107.20,98.40"/>
    </edge>
    <edge id=":J10_3" function="internal">
        <lane id=":J10_3_0" index="0" speed="6.51" length="9.03" shape="1107.20,101.60 1104.75,101.95 1103.00,103.00 1101.95,104.75 1101.60,107.20"/>
    </edge>
    <edge id=":J10_4" function="internal">
        <lane id=":J10_4_0" index="0" speed="13.89" length="14.40" shape="1107.20,101.60 1092.80,101.60"/>
    </edge>
    <edge id=":J10_5" function="internal">
        <lane id=":J10_5_0" index="0" speed="8.00" length="4.07" shape="1107.20,101.60 1103.35,101.05 1103.20,100.96"/>
    </edge>
    <edge id=":J10_13" function="internal">
        <lane id=":J10_13_0" index="0" speed="8.00" length="10.13" shape="1103.20,100.96 1100.60,99.40 1098.95,96.65 1098.40,92.80"/>
    </edge>
    <edge id=":J10_6" function="internal">
        <lane id=":J10_6_0" index="0" speed="6.51" length="9.03" shape="1101.60,92.80 1101.95,95.25 1103.00,97.00 1104.75,98.05 1107.20,98.40"/>
    </edge>
    <edge id=":J10_7" function="internal">
        <lane id=":J10_7_0" index="0" speed="13.89" length="14.40" shape="1101.60,92.80 1101.60,107.20"/>
    </edge>
    <edge id=":J10_8" function="internal">
        <lane id=":J10_8_0" index="0" speed="8.00" length="4.07" shape="1101.60,92.80 1101.05,96.65 1100.96,96.80"/>
    </edge>
    <edge id=":J10_14" function="internal">
        <lane id=":J10_14_0" index="0" speed="8.00" length="10.13" shape="1100.96,96.80 1099.40,99.40 1096.65,101.05 1092.80,101.60"/>
    </edge>
    <edge id=":J10_9" function="internal">
        <lane id=":J10_9_0" index="0" speed="6.51" length="9.03" shape="1092.80,98.40 1095.25,98.05 1097.00,97.00 1098.05,95.25 1098.40,92.80"/>
    </edge>
    <edge id=":J10_10" function="internal">
        <lane id=":J10_10_0" index="0" speed="13.89" length="14.40" shape="1092.80,98.40 1107.20,98.40"/>
    </edge>
    <edge id=":J10_11" function="internal">
        <lane id=":J10_11_0" index="0" speed="8.00" length="4.07" shape="1092.80,98.40 1096.65,98.95 1096.80,99.04"/>
    </edge>
    <edge id=":J10_15" function="internal">
        <lane id=":J10_15_0" index="0" speed="8.00" length="10.13" shape="1096.80,99.04 1099.40,100.60 1101.05,103.35 1101.60,107.20"/>
    </edge>
    <edge id=":J2_0" function="internal">
        <lane id=":J2_0_0" index="0" speed="6.51" length="9.03" shape="198.40,-192.80 198.05,-195.25 197.00,-197.00 195.25,-198.05 192.80,-198.40"/>
    </edge>
    <edge id=":J2_1" function="internal">
        <lane id=":J2_1_0" index="0" speed="13.89" length="14.40" shape="198.40,-192.80 198.40,-207.20"/>
    </edge>
    <edge id=":J2_2" function="internal">
        <lane id=":J2_2_0" index="0" speed="8.00" length="4.07" shape="198.40,-192.80 198.95,-196.65 199.04,-196.80"/>
    </edge>
    <edge id=":J2_12" function="internal">
        <lane id=":J2_12_0" index="0" speed="8.00" length="10.13" shape="199.04,-196.80 200.60,-199.40 203.35,-201.05 207.20,-201.60"/>
    </edge>
    <edge id=":J2_3" function="internal">
        <lane id=":J2_3_0" index="0" speed="6.51" length="9.03" shape="207.20,-198.40 204.75,-198.05 203.00,-197.00 201.95,-195.25 201.60,-192.80"/>
    </edge>
    <edge id=":J2_4" function="internal">
        <lane id=":J2_4_0" index="0" speed="13.89" length="14.40" shape="207.20,-198.40 192.80,-198.40"/>
    </edge>
    <edge id=":J2_5" function="internal">
        <lane id=":J2_5_0" index="0" speed="8.00" length="4.07" shape="207.20,-198.40 203.35,-198.95 203.20,-199.04"/>
    </edge>
    <edge id=":J2_13" function="internal">
        <lane id=":J2_13_0" index="0" speed="8.00" length="10.13" shape="203.20,-199.04 200.60,-200.60 198.95,-203.35 198.40,-207.20"/>
    </edge>
    <edge id=":J2_6" function="internal">
        <lane id=":J2_6_0" index="0" speed="6.51" length="9.03" shape="201.60,-207.20 201.95,-204.75 203.00,-203.00 204.75,-201.95 207.20,-201.60"/>
    </edge>
    <edge id=":J2_7" function="internal">
        <lane id=":J2_7_0" index="0" speed="13.89" length="14.40" shape="201.60,-207.20 201.60,-192.80"/>
    </edge>
    <edge id=":J2_8" function="internal">
        <lane id=":J2_8_0" index="0" speed="8.00" length="4.07" shape="201.60,-207.20 201.05,-203.35 200.96,-203.20"/>
    </edge>
    <edge id=":J2_14" function="internal">
        <lane id=":J2_14_0" index="0" speed="8.00" length="10.13" shape="200.96,-203.20 199.40,-200.60 196.65,-198.95 192.80,-198.40"/>
    </edge>
    <edge id=":J2_9" function="internal">
        <lane id=":J2_9_0" index="0" speed="6.51" length="9.03" shape="192.80,-201.60 195.25,-201.95 197.00,-203.00 198.05,-204.75 198.40,-207.20"/>
    </edge>
    <edge id=":J2_10" function="internal">
        <lane id=":J2_10_0" index="0" speed="13.89" length="14.40" shape="192.80,-201.60 207.20,-201.60"/>
    </edge>
    <edge id=":J2_11" function="internal">
        <lane id=":J2_11_0" index="0" speed="8.00" length="4.07" shape="192.80,-201.60 196.65,-201.05 196.80,-200.96"/>
    </edge>
    <edge id=":J2_15" function="internal">
        <lane id=":J2_15_0" index="0" speed="8.00" length="10.13" shape="196.80,-200.96 199.40,-199.40 201.05,-196.65 201.60,-192.80"/>
    </edge>
    <edge id=":J3_0" function="internal">
        <lane id=":J3_0_0" index="0" speed="6.51" length="9.03" shape="498.40,107.20 498.05,104.75 497.00,103.00 495.25,101.95 492.80,101.60"/>
    </edge>
    <edge id=":J3_1" function="internal">
        <lane id=":J3_1_0" index="0" speed="13.89" length="14.40" shape="498.40,107.20 498.40,92.80"/>
    </edge>
    <edge id=":J3_2" function="internal">
        <lane id=":J3_2_0" index="0" speed="8.00" length="4.07" shape="498.40,107.20 498.95,103.35 499.04,103.20"/>
    </edge>
    <edge id=":J3_12" function="internal">
        <lane id=":J3_12_0" index="0" speed="8.00" length="10.13" shape="499.04,103.20 500.60,100.60 503.35,98.95 507.20,98.40"/>
    </edge>
    <edge id=":J3_3" function="internal">
        <lane id=":J3_3_0" index="0" speed="6.51" length="9.03" shape="507.20,101.60 504.75,101.95 503.00,103.00 501.95,104.75 501.60,107.20"/>
    </edge>
    <edge id=":J3_4" function="internal">
        <lane id=":J3_4_0" index="0" speed="13.89" length="14.40" shape="507.20,101.60 492.80,101.60"/>
    </edge>
    <edge id=":J3_5" function="internal">
        <lane id=":J3_5_0" index="0" speed="8.00" length="4.07" shape="507.20,101.60 503.35,101.05 503.20,100.96"/>
    </edge>
    <edge id=":J3_13" function="internal">
        <lane id=":J3_13_0" index="0" speed="8.00" length="10.13" shape="503.20,100.96 500.60,99.40 498.95,96.65 498.40,92.80"/>
    </edge>
    <edge id=":J3_6" function="internal">
        <lane id=":J3_6_0" index="0" speed="6.51" length="9.03" shape="501.60,92.80 501.95,95.25 503.00,97.00 504.75,98.05 507.20,98.40"/>
    </edge>
    <edge id=":J3_7" function="internal">
        <lane id=":J3_7_0" index="0" speed="13.89" length="14.40" shape="501.60,92.80 501.60,107.20"/>
    </edge>
    <edge id=":J3_8" function="internal">
        <lane id=":J3_8_0" index="0" speed="8.00" length="4.07" shape="501.60,92.80 501.05,96.65 500.96,96.80"/>
    </edge>
    <edge id=":J3_14" function="internal">
        <lane id=":J3_14_0" index="0" speed="8.00" length="10.13" shape="500.96,96.80 499.40,99.40 496.65,101.05 492.80,101.60"/>
    </edge>
    <edge id=":J3_9" function="internal">
        <lane id=":J3_9_0" index="0" speed="6.51" length="9.03" shape="492.80,98.40 495.25,98.05 497.00,97.00 498.05,95.25 498.40,92.80"/>
    </edge>
    <edge id=":J3_10" function="internal">
        <lane id=":J3_10_0" index="0" speed="13.89" length="14.40" shape="492.80,98.40 507.20,98.40"/>
    </edge>
    <edge id=":J3_11" function="internal">
        <lane id=":J3_11_0" index="0" speed="8.00" length="4.07" shape="492.80,98.40 496.65,98.95 496.80,99.04"/>
    </edge>
    <edge id=":J3_15" function="internal">
        <lane id=":J3_15_0" index="0" speed="8.00" length="10.13" shape="496.80,99.04 499.40,100.60 501.05,103.35 501.60,107.20"/>
    </edge>
    <edge id=":J5_0" function="internal">
        <lane id=":J5_0_0" index="0" speed="6.51" length="9.03" shape="498.40,-192.80 498.05,-195.25 497.00,-197.00 495.25,-198.05 492.80,-198.40"/>
    </edge>
    <edge id=":J5_1" function="internal">
        <lane id=":J5_1_0" index="0" speed="13.89" length="14.40" shape="498.40,-192.80 498.40,-207.20"/>
    </edge>
    <edge id=":J5_2" function="internal">
        <lane id=":J5_2_0" index="0" speed="8.00" length="4.07" shape="498.40,-192.80 498.95,-196.65 499.04,-196.80"/>
    </edge>
    <edge id=":J5_12" function="internal">
        <lane id=":J5_12_0" index="0" speed="8.00" length="10.13" shape="499.04,-196.80 500.60,-199.40 503.35,-201.05 507.20,-201.60"/>
    </edge>
    <edge id=":J5_3" function="internal">
        <lane id=":J5_3_0" index="0" speed="6.51" length="9.03" shape="507.20,-198.40 504.75,-198.05 503.00,-197.00 501.95,-195.25 501.60,-192.80"/>
    </edge>
    <edge id=":J5_4" function="internal">
        <lane id=":J5_4_0" index="0" speed="13.89" length="14.40" shape="507.20,-198.40 492.80,-198.40"/>
    </edge>
    <edge id=":J5_5" function="internal">
        <lane id=":J5_5_0" index="0" speed="8.00" length="4.07" shape="507.20,-198.40 503.35,-198.95 503.20,-199.04"/>
    </edge>
    <edge id=":J5_13" function="internal">
        <lane id=":J5_13_0" index="0" speed="8.00" length="10.13" shape="503.20,-199.04 500.60,-200.60 498.95,-203.35 498.40,-207.20"/>
    </edge>
    <edge id=":J5_6" function="internal">
        <lane id=":J5_6_0" index="0" speed="6.51" length="9.03" shape="501.60,-207.20 501.95,-204.75 503.00,-203.00 504.75,-201.95 507.20,-201.60"/>
    </edge>
    <edge id=":J5_7" function="internal">
        <lane id=":J5_7_0" index="0" speed="13.89" length="14.40" shape="501.60,-207.20 501.60,-192.80"/>
    </edge>
    <edge id=":J5_8" function="internal">
        <lane id=":J5_8_0" index="0" speed="8.00" length="4.07" shape="501.60,-207.20 501.05,-203.35 500.96,-203.20"/>
    </edge>
    <edge id=":J5_14" function="internal">
        <lane id=":J5_14_0" index="0" speed="8.00" length="10.13" shape="500.96,-203.20 499.40,-200.60 496.65,-198.95 492.80,-198.40"/>
    </edge>
    <edge id=":J5_9" function="internal">
        <lane id=":J5_9_0" index="0" speed="6.51" length="9.03" shape="492.80,-201.60 495.25,-201.95 497.00,-203.00 498.05,-204.75 498.40,-207.20"/>
    </edge>
    <edge id=":J5_10" function="internal">
        <lane id=":J5_10_0" index="0" speed="13.89" length="14.40" shape="492.80,-201.60 507.20,-201.60"/>
    </edge>
    <edge id=":J5_11" function="internal">
        <lane id=":J5_11_0" index="0" speed="8.00" length="4.07" shape="492.80,-201.60 496.65,-201.05 496.80,-200.96"/>
    </edge>
    <edge id=":J5_15" function="internal">
        <lane id=":J5_15_0" index="0" speed="8.00" length="10.13" shape="496.80,-200.96 499.40,-199.40 501.05,-196.65 501.60,-192.80"/>
    </edge>
    <edge id=":J7_0" function="internal">
        <lane id=":J7_0_0" index="0" speed="6.51" length="9.03" shape="798.40,107.20 798.05,104.75 797.00,103.00 795.25,101.95 792.80,101.60"/>
    </edge>
    <edge id=":J7_1" function="internal">
        <lane id=":J7_1_0" index="0" speed="13.89" length="14.40" shape="798.40,107.20 798.40,92.80"/>
    </edge>
    <edge id=":J7_2" function="internal">
        <lane id=":J7_2_0" index="0" speed="8.00" length="4.07" shape="798.40,107.20 798.95,103.35 799.04,103.20"/>
    </edge>
    <edge id=":J7_12" function="internal">
        <lane id=":J7_12_0" index="0" speed="8.00" length="10.13" shape="799.04,103.20 800.60,100.60 803.35,98.95 807.20,98.40"/>
    </edge>
    <edge id=":J7_3" function="internal">
        <lane id=":J7_3_0" index="0" speed="6.51" length="9.03" shape="807.20,101.60 804.75,101.95 803.00,103.00 801.95,104.75 801.60,107.20"/>
    </edge>
    <edge id=":J7_4" function="internal">
        <lane id=":J7_4_0" index="0" speed="13.89" length="14.40" shape="807.20,101.60 792.80,101.60"/>
    </edge>
    <edge id=":J7_5" function="internal">
        <lane id=":J7_5_0" index="0" speed="8.00" length="4.07" shape="807.20,101.60 803.35,101.05 803.20,100.96"/>
    </edge>
    <edge id=":J7_13" function="internal">
        <lane id=":J7_13_0" index="0" speed="8.00" length="10.13" shape="803.20,100.96 800.60,99.40 798.95,96.65 798.40,92.80"/>
    </edge>
    <edge id=":J7_6" function="internal">
        <lane id=":J7_6_0" index="0" speed="6.51" length="9.03" shape="801.60,92.80 801.95,95.25 803.00,97.00 804.75,98.05 807.20,98.40"/>
    </edge>
    <edge id=":J7_7" function="internal">
        <lane id=":J7_7_0" index="0" speed="13.89" length="14.40" shape="801.60,92.80 801.60,107.20"/>
    </edge>
    <edge id=":J7_8" function="internal">
        <lane id=":J7_8_0" index="0" speed="8.00" length="4.07" shape="801.60,92.80 801.05,96.65 800.96,96.80"/>
    </edge>
    <edge id=":J7_14" function="internal">
        <lane id=":J7_14_0" index="0" speed="8.00" length="10.13" shape="800.96,96.80 799.40,99.40 796.65,101.05 792.80,101.60"/>
    </edge>
    <edge id=":J7_9" function="internal">
        <lane id=":J7_9_0" index="0" speed="6.51" length="9.03" shape="792.80,98.40 795.25,98.05 797.00,97.00 798.05,95.25 798.40,92.80"/>
    </edge>
    <edge id=":J7_10" function="internal">
        <lane id=":J7_10_0" index="0" speed="13.89" length="14.40" shape="792.80,98.40 807.20,98.40"/>
    </edge>
    <edge id=":J7_11" function="internal">
        <lane id=":J7_11_0" index="0" speed="8.00" length="4.07" shape="792.80,98.40 796.65,98.95 796.80,99.04"/>
    </edge>
    <edge id=":J7_15" function="internal">
        <lane id=":J7_15_0" index="0" speed="8.00" length="10.13" shape="796.80,99.04 799.40,100.60 801.05,103.35 801.60,107.20"/>
    </edge>
    <edge id=":J8_0" function="internal">
        <lane id=":J8_0_0" index="0" speed="6.51" length="9.03" shape="798.40,-192.80 798.05,-195.25 797.00,-197.00 795.25,-198.05 792.80,-198.40"/>
    </edge>
    <edge id=":J8_1" function="internal">
        <lane id=":J8_1_0" index="0" speed="13.89" length="14.40" shape="798.40,-192.80 798.40,-207.20"/>
    </edge>
    <edge id=":J8_2" function="internal">
        <lane id=":J8_2_0" index="0" speed="8.00" length="4.07" shape="798.40,-192.80 798.95,-196.65 799.04,-196.80"/>
    </edge>
    <edge id=":J8_12" function="internal">
        <lane id=":J8_12_0" index="0" speed="8.00" length="10.13" shape="799.04,-196.80 800.60,-199.40 803.35,-201.05 807.20,-201.60"/>
    </edge>
    <edge id=":J8_3" function="internal">
        <lane id=":J8_3_0" index="0" speed="6.51" length="9.03" shape="807.20,-198.40 804.75,-198.05 803.00,-197.00 801.95,-195.25 801.60,-192.80"/>
    </edge>
    <edge id=":J8_4" function="internal">
        <lane id=":J8_4_0" index="0" speed="13.89" length="14.40" shape="807.20,-198.40 792.80,-198.40"/>
    </edge>
    <edge id=":J8_5" function="internal">
        <lane id=":J8_5_0" index="0" speed="8.00" length="4.07" shape="807.20,-198.40 803.35,-198.95 803.20,-199.04"/>
    </edge>
    <edge id=":J8_13" function="internal">
        <lane id=":J8_13_0" index="0" speed="8.00" length="10.13" shape="803.20,-199.04 800.60,-200.60 798.95,-203.35 798.40,-207.20"/>
    </edge>
    <edge id=":J8_6" function="internal">
        <lane id=":J8_6_0" index="0" speed="6.51" length="9.03" shape="801.60,-207.20 801.95,-204.75 803.00,-203.00 804.75,-201.95 807.20,-201.60"/>
    </edge>
    <edge id=":J8_7" function="internal">
        <lane id=":J8_7_0" index="0" speed="13.89" length="14.40" shape="801.60,-207.20 801.60,-192.80"/>
    </edge>
    <edge id=":J8_8" function="internal">
        <lane id=":J8_8_0" index="0" speed="8.00" length="4.07" shape="801.60,-207.20 801.05,-203.35 800.96,-203.20"/>
    </edge>
    <edge id=":J8_14" function="internal">
        <lane id=":J8_14_0" index="0" speed="8.00" length="10.13" shape="800.96,-203.20 799.40,-200.60 796.65,-198.95 792.80,-198.40"/>
    </edge>
    <edge id=":J8_9" function="internal">
        <lane id=":J8_9_0" index="0" speed="6.51" length="9.03" shape="792.80,-201.60 795.25,-201.95 797.00,-203.00 798.05,-204.75 798.40,-207.20"/>
    </edge>
    <edge id=":J8_10" function="internal">
        <lane id=":J8_10_0" index="0" speed="13.89" length="14.40" shape="792.80,-201.60 807.20,-201.60"/>
    </edge>
    <edge id=":J8_11" function="internal">
        <lane id=":J8_11_0" index="0" speed="8.00" length="4.07" shape="792.80,-201.60 796.65,-201.05 796.80,-200.96"/>
    </edge>
    <edge id=":J8_15" function="internal">
        <lane id=":J8_15_0" index="0" speed="8.00" length="10.13" shape="796.80,-200.96 799.40,-199.40 801.05,-196.65 801.60,-192.80"/>
    </edge>
    <edge id=":J9_0" function="internal">
        <lane id=":J9_0_0" index="0" speed="6.51" length="9.03" shape="1098.40,-192.80 1098.05,-195.25 1097.00,-197.00 1095.25,-198.05 1092.80,-198.40"/>
    </edge>
    <edge id=":J9_1" function="internal">
        <lane id=":J9_1_0" index="0" speed="13.89" length="14.40" shape="1098.40,-192.80 1098.40,-207.20"/>
    </edge>
    <edge id=":J9_2" function="internal">
        <lane id=":J9_2_0" index="0" speed="8.00" length="4.07" shape="1098.40,-192.80 1098.95,-196.65 1099.04,-196.80"/>
    </edge>
    <edge id=":J9_12" function="internal">
        <lane id=":J9_12_0" index="0" speed="8.00" length="10.13" shape="1099.04,-196.80 1100.60,-199.40 1103.35,-201.05 1107.20,-201.60"/>
    </edge>
    <edge id=":J9_3" function="internal">
        <lane id=":J9_3_0" index="0" speed="6.51" length="9.03" shape="1107.20,-198.40 1104.75,-198.05 1103.00,-197.00 1101.95,-195.25 1101.60,-192.80"/>
    </edge>
    <edge id=":J9_4" function="internal">
        <lane id=":J9_4_0" index="0" speed="13.89" length="14.40" shape="1107.20,-198.40 1092.80,-198.40"/>
    </edge>
    <edge id=":J9_5" function="internal">
        <lane id=":J9_5_0" index="0" speed="8.00" length="4.07" shape="1107.20,-198.40 1103.35,-198.95 1103.20,-199.04"/>
    </edge>
    <edge id=":J9_13" function="internal">
        <lane id=":J9_13_0" index="0" speed="8.00" length="10.13" shape="1103.20,-199.04 1100.60,-200.60 1098.95,-203.35 1098.40,-207.20"/>
    </edge>
    <edge id=":J9_6" function="internal">
        <lane id=":J9_6_0" index="0" speed="6.51" length="9.03" shape="1101.60,-207.20 1101.95,-204.75 1103.00,-203.00 1104.75,-201.95 1107.20,-201.60"/>
    </edge>
    <edge id=":J9_7" function="internal">
        <lane id=":J9_7_0" index="0" speed="13.89" length="14.40" shape="1101.60,-207.20 1101.60,-192.80"/>
    </edge>
    <edge id=":J9_8" function="internal">
        <lane id=":J9_8_0" index="0" speed="8.00" length="4.07" shape="1101.60,-207.20 1101.05,-203.35 1100.96,-203.20"/>
    </edge>
    <edge id=":J9_14" function="internal">
        <lane id=":J9_14_0" index="0" speed="8.00" length="10.13" shape="1100.96,-203.20 1099.40,-200.60 1096.65,-198.95 1092.80,-198.40"/>
    </edge>
    <edge id=":J9_9" function="internal">
        <lane id=":J9_9_0" index="0" speed="6.51" length="9.03" shape="1092.80,-201.60 1095.25,-201.95 1097.00,-203.00 1098.05,-204.75 1098.40,-207.20"/>
    </edge>
    <edge id=":J9_10" function="internal">
        <lane id=":J9_10_0" index="0" speed="13.89" length="14.40" shape="1092.80,-201.60 1107.20,-201.60"/>
    </edge>
    <edge id=":J9_11" function="internal">
        <lane id=":J9_11_0" index="0" speed="8.00" length="4.07" shape="1092.80,-201.60 1096.65,-201.05 1096.80,-200.96"/>
    </edge>
    <edge id=":J9_15" function="internal">
        <lane id=":J9_15_0" index="0" speed="8.00" length="10.13" shape="1096.80,-200.96 1099.40,-199.40 1101.05,-196.65 1101.60,-192.80"/>
    </edge>

    <edge id="-E0" from="J1" to="J0" priority="-1">
        <lane id="-E0_0" index="0" speed="13.89" length="292.80" shape="192.80,101.60 -100.00,101.60"/>
    </edge>
    <edge id="-E18" from="J9" to="J17" priority="-1">
        <lane id="-E18_0" index="0" speed="13.89" length="292.80" shape="1098.40,-207.20 1098.40,-500.00"/>
    </edge>
    <edge id="-E19" from="J8" to="J18" priority="-1">
        <lane id="-E19_0" index="0" speed="13.89" length="292.80" shape="798.40,-207.20 798.40,-500.00"/>
    </edge>
    <edge id="-E20" from="J5" to="J19" priority="-1">
        <lane id="-E20_0" index="0" speed="13.89" length="292.80" shape="498.40,-207.20 498.40,-500.00"/>
    </edge>
    <edge id="-E21" from="J2" to="J20" priority="-1">
        <lane id="-E21_0" index="0" speed="13.89" length="292.80" shape="198.40,-207.20 198.40,-500.00"/>
    </edge>
    <edge id="-E4" from="J2" to="J6" priority="-1">
        <lane id="-E4_0" index="0" speed="13.89" length="292.80" shape="192.80,-198.40 -100.00,-198.40"/>
    </edge>
    <edge id="E11" from="J1" to="J11" priority="-1">
        <lane id="E11_0" index="0" speed="13.89" length="292.80" shape="201.60,107.20 201.60,400.00"/>
    </edge>
    <edge id="E12" from="J3" to="J12" priority="-1">
        <lane id="E12_0" index="0" speed="13.89" length="292.80" shape="501.60,107.20 501.60,400.00"/>
    </edge>
    <edge id="E13" from="J7" to="J13" priority="-1">
        <lane id="E13_0" index="0" speed="13.89" length="292.80" shape="801.60,107.20 801.60,400.00"/>
    </edge>
    <edge id="E15" from="J10" to="J14" priority="-1">
        <lane id="E15_0" index="0" speed="13.89" length="292.80" shape="1101.60,107.20 1101.60,400.00"/>
    </edge>
    <edge id="E16" from="J10" to="J15" priority="-1">
        <lane id="E16_0" index="0" speed="13.89" length="292.80" shape="1107.20,98.40 1400.00,98.40"/>
    </edge>
    <edge id="E17" from="J9" to="J16" priority="-1">
        <lane id="E17_0" index="0" speed="13.89" length="292.80" shape="1107.20,-201.60 1400.00,-201.60"/>
    </edge>
    <edge id="lane_1_0" from="J11" to="J1" priority="-1">
        <lane id="lane_1_0_0" index="0" speed="13.89" length="292.80" shape="198.40,400.00 198.40,107.20"/>
    </edge>
    <edge id="lane_1_1" from="J0" to="J1" priority="-1">
        <lane id="lane_1_1_0" index="0" speed="13.89" length="292.80" shape="-100.00,98.40 192.80,98.40"/>
    </edge>
    <edge id="lane_1_2" from="J2" to="J1" priority="-1">
        <lane id="lane_1_2_0" index="0" speed="13.89" length="285.60" shape="201.60,-192.80 201.60,92.80"/>
    </edge>
    <edge id="lane_1_3" from="J3" to="J1" priority="-1">
        <lane id="lane_1_3_0" index="0" speed="13.89" length="285.60" shape="492.80,101.60 207.20,101.60"/>
    </edge>
    <edge id="lane_2_0" from="J12" to="J3" priority="-1">
        <lane id="lane_2_0_0" index="0" speed="13.89" length="292.80" shape="498.40,400.00 498.40,107.20"/>
    </edge>
    <edge id="lane_2_1" from="J1" to="J3" priority="-1">
        <lane id="lane_2_1_0" index="0" speed="13.89" length="285.60" shape="207.20,98.40 492.80,98.40"/>
    </edge>
    <edge id="lane_2_2" from="J5" to="J3" priority="-1">
        <lane id="lane_2_2_0" index="0" speed="13.89" length="285.60" shape="501.60,-192.80 501.60,92.80"/>
    </edge>
    <edge id="lane_2_3" from="J7" to="J3" priority="-1">
        <lane id="lane_2_3_0" index="0" speed="13.89" length="285.60" shape="792.80,101.60 507.20,101.60"/>
    </edge>
    <edge id="lane_3_0" from="J13" to="J7" priority="-1">
        <lane id="lane_3_0_0" index="0" speed="13.89" length="292.80" shape="798.40,400.00 798.40,107.20"/>
    </edge>
    <edge id="lane_3_1" from="J3" to="J7" priority="-1">
        <lane id="lane_3_1_0" index="0" speed="13.89" length="285.60" shape="507.20,98.40 792.80,98.40"/>
    </edge>
    <edge id="lane_3_2" from="J8" to="J7" priority="-1">
        <lane id="lane_3_2_0" index="0" speed="13.89" length="285.60" shape="801.60,-192.80 801.60,92.80"/>
    </edge>
    <edge id="lane_3_3" from="J10" to="J7" priority="-1">
        <lane id="lane_3_3_0" index="0" speed="13.89" length="285.60" shape="1092.80,101.60 807.20,101.60"/>
    </edge>
    <edge id="lane_4_0" from="J14" to="J10" priority="-1">
        <lane id="lane_4_0_0" index="0" speed="13.89" length="292.80" shape="1098.40,400.00 1098.40,107.20"/>
    </edge>
    <edge id="lane_4_1" from="J7" to="J10" priority="-1">
        <lane id="lane_4_1_0" index="0" speed="13.89" length="285.60" shape="807.20,98.40 1092.80,98.40"/>
    </edge>
    <edge id="lane_4_2" from="J9" to="J10" priority="-1">
        <lane id="lane_4_2_0" index="0" speed="13.89" length="285.60" shape="1101.60,-192.80 1101.60,92.80"/>
    </edge>
    <edge id="lane_4_3" from="J15" to="J10" priority="-1">
        <lane id="lane_4_3_0" index="0" speed="13.89" length="292.80" shape="1400.00,101.60 1107.20,101.60"/>
    </edge>
    <edge id="lane_5_0" from="J1" to="J2" priority="-1">
        <lane id="lane_5_0_0" index="0" speed="13.89" length="285.60" shape="198.40,92.80 198.40,-192.80"/>
    </edge>
    <edge id="lane_5_1" from="J6" to="J2" priority="-1">
        <lane id="lane_5_1_0" index="0" speed="13.89" length="292.80" shape="-100.00,-201.60 192.80,-201.60"/>
    </edge>