<?xml version="1.0" encoding="UTF-8"?>

<!-- generated on 2024-03-06 10:09:08 by Eclipse SUMO netedit Version 1.19.0
-->

<routes xmlns:xsi="http://www.w3.org/2001/XMLSchema-instance" xsi:noNamespaceSchemaLocation="http://sumo.dlr.de/xsd/routes_file.xsd">
    <!-- Vehicles, persons and containers (sorted by depart) -->
    <flow id="f_0" begin="0.00" from="E4" to="-E21" end="3600.00" vehsPerHour="50"/>
    <flow id="f_1" begin="0.00" from="E4" to="-E20" end="3600.00" vehsPerHour="50"/>
    <flow id="f_10" begin="0.00" from="E4" to="-E0" end="3600.00" vehsPerHour="50"/>
    <flow id="f_100" begin="0.00" from="-E12" to="-E20" end="3600.00" vehsPerHour="50"/>
    <flow id="f_101" begin="0.00" from="-E12" to="-E19" end="3600.00" vehsPerHour="50"/>
    <flow id="f_102" begin="0.00" from="-E12" to="-E18" end="3600.00" vehsPerHour="50"/>
    <flow id="f_103" begin="0.00" from="-E12" to="-E18" end="3600.00" vehsPerHour="50"/>
    <flow id="f_104" begin="0.00" from="-E12" to="E17" end="3600.00" vehsPerHour="50"/>
    <flow id="f_105" begin="0.00" from="-E12" to="E16" end="3600.00" vehsPerHour="50"/>
    <flow id="f_106" begin="0.00" from="-E12" to="E15" end="3600.00" vehsPerHour="50"/>
    <flow id="f_107" begin="0.00" from="-E12" to="E13" end="3600.00" vehsPerHour="50"/>
    <flow id="f_108" begin="0.00" from="-E11" to="-E0" end="3600.00" vehsPerHour="50"/>
    <flow id="f_109" begin="0.00" from="-E11" to="-E4" end="3600.00" vehsPerHour="50"/>
    <flow id="f_11" begin="0.00" from="E21" to="-E20" end="3600.00" vehsPerHour="50"/>
    <flow id="f_110" begin="0.00" from="-E11" to="-E21" end="3600.00" vehsPerHour="50"/>
    <flow id="f_111" begin="0.00" from="-E11" to="-E20" end="3600.00" vehsPerHour="50"/>
    <flow id="f_112" begin="0.00" from="-E11" to="-E19" end="3600.00" vehsPerHour="50"/>
    <flow id="f_113" begin="0.00" from="-E11" to="-E18" end="3600.00" vehsPerHour="50"/>
    <flow id="f_114" begin="0.00" from="-E11" to="E17" end="3600.00" vehsPerHour="50"/>
    <flow id="f_115" begin="0.00" from="-E11" to="E16" end="3600.00" vehsPerHour="50"/>
    <flow id="f_116" begin="0.00" from="-E11" to="E15" end="3600.00" vehsPerHour="50"/>
    <flow id="f_117" begin="0.00" from="-E11" to="E13" end="3600.00" vehsPerHour="50"/>
    <flow id="f_118" begin="0.00" from="-E11" to="E12" end="3600.00" vehsPerHour="50"/>
    <flow id="f_119" begin="0.00" from="E0" to="-E4" end="3600.00" vehsPerHour="50"/>
    <flow id="f_12" begin="0.00" from="E21" to="-E19" end="3600.00" vehsPerHour="50"/>
    <flow id="f_120" begin="0.00" from="E0" to="-E21" end="3600.00" vehsPerHour="50"/>
    <flow id="f_121" begin="0.00" from="E0" to="-E20" end="3600.00" vehsPerHour="50"/>
    <flow id="f_122" begin="0.00" from="E0" to="-E19" end="3600.00" vehsPerHour="50"/>
    <flow id="f_123" begin="0.00" from="E0" to="-E18" end="3600.00" vehsPerHour="50"/>
    <flow id="f_124" begin="0.00" from="E0" to="E17" end="3600.00" vehsPerHour="50"/>
    <flow id="f_125" begin="0.00" from="E0" to="E16" end="3600.00" vehsPerHour="50"/>
    <flow id="f_126" begin="0.00" from="E0" to="E15" end="3600.00" vehsPerHour="50"/>
    <flow id="f_127" begin="0.00" from="E0" to="E13" end="3600.00" vehsPerHour="50"/>
    <flow id="f_128" begin="0.00" from="E0" to="E13" end="3600.00" vehsPerHour="50"/>
    <flow id="f_129" begin="0.00" from="E0" to="E12" end="3600.00" vehsPerHour="50"/>
    <flow id="f_13" begin="0.00" from="E21" to="-E18" end="3600.00" vehsPerHour="50"/>
    <flow id="f_130" begin="0.00" from="E0" to="E11" end="3600.00" vehsPerHour="50"/>
    <flow id="f_14" begin="0.00" from="E21" to="E17" end="3600.00" vehsPerHour="50"/>
    <flow id="f_15" begin="0.00" from="E21" to="E16" end="3600.00" vehsPerHour="50"/>
    <flow id="f_16" begin="0.00" from="E21" to="E15" end="3600.00" vehsPerHour="50"/>
    <flow id="f_17" begin="0.00" from="E21" to="E13" end="3600.00" vehsPerHour="50"/>
    <flow id="f_18" begin="0.00" from="E21" to="E12" end="3600.00" vehsPerHour="50"/>
    <flow id="f_19" begin="0.00" from="E21" to="E11" end="3600.00" vehsPerHour="50"/>
    <flow id="f_2" begin="0.00" from="E4" to="-E19" end="3600.00" vehsPerHour="50"/>
    <flow id="f_20" begin="0.00" from="E21" to="-E0" end="3600.00" vehsPerHour="50"/>
    <flow id="f_21" begin="0.00" from="E21" to="-E4" end="3600.00" vehsPerHour="50"/>
    <flow id="f_22" begin="0.00" from="E20" to="-E19" end="3600.00" vehsPerHour="50"/>
    <flow id="f_23" begin="0.00" from="E20" to="-E18" end="3600.00" vehsPerHour="50"/>
    <flow id="f_24" begin="0.00" from="E19" to="E17" end="3600.00" vehsPerHour="50"/>
    <flow id="f_25" begin="0.00" from="E19" to="E16" end="3600.00" vehsPerHour="50"/>
    <flow id="f_26" begin="0.00" from="E19" to="E15" end="3600.00" vehsPerHour="50"/>
    <flow id="f_27" begin="0.00" from="E19" to="E13" end="3600.00" vehsPerHour="50"/>
    <flow id="f_28" begin="0.00" from="E19" to="E12" end="3600.00" vehsPerHour="50"/>
    <flow id="f_29" begin="0.00" from="E19" to="E11" end="3600.00" vehsPerHour="50"/>
    <flow id="f_3" begin="0.00" from="E4" to="-E18" end="3600.00" vehsPerHour="50"/>
    <flow id="f_30" begin="0.00" from="E19" to="-E0" end="3600.00" vehsPerHour="50"/>
    <flow id="f_31" begin="0.00" from="E19" to="-E4" end="3600.00" vehsPerHour="50"/>
    <flow id="f_32" begin="0.00" from="E19" to="-E21" end="3600.00" vehsPerHour="50"/>
    <flow id="f_33" begin="0.00" from="E20" to="E17" end="3600.00" vehsPerHour="50"/>
    <flow id="f_34" begin="0.00" from="E20" to="E16" end="3600.00" vehsPerHour="50"/>
    <flow id="f_35" begin="0.00" from="E20" to="E13" end="3600.00" vehsPerHour="50"/>
    <flow id="f_36" begin="0.00" from="E20" to="E12" end="3600.00" vehsPerHour="50"/>
    <flow id="f_37" begin="0.00" from="E20" to="E11" end="3600.00" vehsPerHour="50"/>
    <flow id="f_38" begin="0.00" from="E20" to="-E0" end="3600.00" vehsPerHour="50"/>
    <flow id="f_39" begin="0.00" from="E20" to="-E4" end="3600.00" vehsPerHour="50"/>
    <flow id="f_4" begin="0.00" from="E4" to="E17" end="3600.00" vehsPerHour="50"/>
    <flow id="f_40" begin="0.00" from="E20" to="-E21" end="3600.00" vehsPerHour="50"/>
    <flow id="f_41" begin="0.00" from="E18" to="E17" end="3600.00" vehsPerHour="50"/>
    <flow id="f_42" begin="0.00" from="E18" to="E16" end="3600.00" vehsPerHour="50"/>
    <flow id="f_43" begin="0.00" from="E18" to="E15" end="3600.00" vehsPerHour="50"/>
    <flow id="f_44" begin="0.00" from="E18" to="E13" end="3600.00" vehsPerHour="50"/>
    <flow id="f_45" begin="0.00" from="E18" to="E12" end="3600.00" vehsPerHour="50"/>
    <flow id="f_46" begin="0.00" from="E18" to="E11" end="3600.00" vehsPerHour="50"/>
    <flow id="f_47" begin="0.00" from="E18" to="-E0" end="3600.00" vehsPerHour="50"/>
    <flow id="f_48" begin="0.00" from="E18" to="-E4" end="3600.00" vehsPerHour="50"/>
    <flow id="f_49" begin="0.00" from="E18" to="-E21" end="3600.00" vehsPerHour="50"/>
    <flow id="f_5" begin="0.00" from="E4" to="E16" end="3600.00" vehsPerHour="50"/>
    <flow id="f_50" begin="0.00" from="E18" to="-E20" end="3600.00" vehsPerHour="50"/>
    <flow id="f_51" begin="0.00" from="E18" to="-E19" end="3600.00" vehsPerHour="50"/>
    <flow id="f_52" begin="0.00" from="-E17" to="E16" end="3600.00" vehsPerHour="50"/>
    <flow id="f_53" begin="0.00" from="-E17" to="E15" end="3600.00" vehsPerHour="50"/>
    <flow id="f_54" begin="0.00" from="-E17" to="E13" end="3600.00" vehsPerHour="50"/>
    <flow id="f_55" begin="0.00" from="-E17" to="E12" end="3600.00" vehsPerHour="50"/>
    <flow id="f_56" begin="0.00" from="-E17" to="E11" end="3600.00" vehsPerHour="50"/>
    <flow id="f_57" begin="0.00" from="-E17" to="-E2" end="3600.00" vehsPerHour="50"/>
    <flow id="f_58" begin="0.00" from="-E17" to="-E5" end="3600.00" vehsPerHour="50"/>
    <flow id="f_59" begin="0.00" from="-E17" to="-E20" end="3600.00" vehsPerHour="50"/>
    <flow id="f_6" begin="0.00" from="E4" to="E15" end="3600.00" vehsPerHour="50"/>
    <flow id="f_60" begin="0.00" from="-E17" to="-E20" end="3600.00" vehsPerHour="50"/>
    <flow id="f_61" begin="0.00" from="-E17" to="-E19" end="3600.00" vehsPerHour="50"/>
    <flow id="f_62" begin="0.00" from="-E17" to="-E18" end="3600.00" vehsPerHour="50"/>
    <flow id="f_63" begin="0.00" from="-E16" to="E15" end="3600.00" vehsPerHour="50"/>
    <flow id="f_64" begin="0.00" from="-E16" to="E13" end="3600.00" vehsPerHour="50"/>
    <flow id="f_65" begin="0.00" from="-E16" to="E12" end="3600.00" vehsPerHour="50"/>
    <flow id="f_66" begin="0.00" from="-E16" to="E11" end="3600.00" vehsPerHour="50"/>
    <flow id="f_67" begin="0.00" from="-E16" to="-E0" end="3600.00" vehsPerHour="50"/>
    <flow id="f_68" begin="0.00" from="-E16" to="-E4" end="3600.00" vehsPerHour="50"/>
    <flow id="f_69" begin="0.00" from="-E16" to="-E21" end="3600.00" vehsPerHour="50"/>
    <flow id="f_7" begin="0.00" from="E4" to="E15" end="3600.00" vehsPerHour="50"/>
    <flow id="f_70" begin="0.00" from="-E16" to="-E20" end="3600.00" vehsPerHour="50"/>
    <flow id="f_71" begin="0.00" from="-E16" to="-E20" end="3600.00" vehsPerHour="50"/>
    <flow id="f_72" begin="0.00" from="-E16" to="-E19" end="3600.00" vehsPerHour="50"/>
    <flow id="f_73" begin="0.00" from="-E16" to="-E18" end="3600.00" vehsPerHour="50"/>
    <flow id="f_74" begin="0.00" from="-E15" to="E16" end="3600.00" vehsPerHour="50"/>
    <flow id="f_75" begin="0.00" from="-E15" to="E17" end="3600.00" vehsPerHour="50"/>
    <flow id="f_76" begin="0.00" from="-E15" to="-E18" end="3600.00" vehsPerHour="50"/>
    <flow id="f_77" begin="0.00" from="-E15" to="E13" end="3600.00" vehsPerHour="50"/>
    <flow id="f_78" begin="0.00" from="-E15" to="-E19" end="3600.00" vehsPerHour="50"/>
    <flow id="f_79" begin="0.00" from="-E15" to="E12" end="3600.00" vehsPerHour="50"/>
    <flow id="f_8" begin="0.00" from="E4" to="E12" end="3600.00" vehsPerHour="50"/>
    <flow id="f_80" begin="0.00" from="-E15" to="-E20" end="3600.00" vehsPerHour="50"/>
    <flow id="f_81" begin="0.00" from="-E15" to="E11" end="3600.00" vehsPerHour="50"/>
    <flow id="f_82" begin="0.00" from="-E15" to="-E21" end="3600.00" vehsPerHour="50"/>
    <flow id="f_83" begin="0.00" from="-E15" to="-E0" end="3600.00" vehsPerHour="50"/>
    <flow id="f_84" begin="0.00" from="-E15" to="-E4" end="3600.00" vehsPerHour="50"/>
    <flow id="f_85" begin="0.00" from="-E13" to="E15" end="3600.00" vehsPerHour="50"/>
    <flow id="f_86" begin="0.00" from="-E13" to="E16" end="3600.00" vehsPerHour="50"/>
    <flow id="f_87" begin="0.00" from="-E13" to="E17" end="3600.00" vehsPerHour="50"/>
    <flow id="f_88" begin="0.00" from="-E13" to="-E18" end="3600.00" vehsPerHour="50"/>
    <flow id="f_89" begin="0.00" from="-E13" to="-E19" end="3600.00" vehsPerHour="50"/>
    <flow id="f_9" begin="0.00" from="E4" to="E11" end="3600.00" vehsPerHour="50"/>
    <flow id="f_90" begin="0.00" from="-E13" to="-E20" end="3600.00" vehsPerHour="50"/>
    <flow id="f_91" begin="0.00" from="-E13" to="-E21" end="3600.00" vehsPerHour="50"/>
    <flow id="f_92" begin="0.00" from="-E13" to="-E4" end="3600.00" vehsPerHour="50"/>
    <flow id="f_93" begin="0.00" from="-E13" to="-E0" end="3600.00" vehsPerHour="50"/>
    <flow id="f_94" begin="0.00" from="-E13" to="E11" end="3600.00" vehsPerHour="50"/>
    <flow id="f_95" begin="0.00" from="-E13" to="E12" end="3600.00" vehsPerHour="50"/>
    <flow id="f_96" begin="0.00" from="-E12" to="E11" end="3600.00" vehsPerHour="50"/>
    <flow id="f_97" begin="0.00" from="-E12" to="-E0" end="3600.00" vehsPerHour="50"/>
    <flow id="f_98" begin="0.00" from="-E12" to="-E4" end="3600.00" vehsPerHour="50"/>
    <flow id="f_99" begin="0.00" from="-E12" to="-E21" end="3600.00" vehsPerHour="50"/>
</routes>
